10
Energy =
H     0.4103081   -0.2253411   -2.4749867 
O    -0.1989514   -0.2166097   -1.7305815 
C     0.4958894    0.2377180   -0.5728612 
H     0.8871394    1.2523652   -0.7119162 
H     1.3353999   -0.4219669   -0.3239547 
C    -0.4958562    0.2377847    0.5728585 
H    -0.8869888    1.2524700    0.7119051 
H    -1.3354449   -0.4218109    0.3239444 
O     0.1989318   -0.2165849    1.7305933 
H    -0.4104989   -0.2258398    2.4748541 
