10
Energy = -229.0258411794
H     0.3950554   -0.1216392   -2.4877548 
O    -0.1982408   -0.2182291   -1.7339143 
C     0.4950419    0.2354683   -0.5753173 
H     0.9215027    1.2305123   -0.7330730 
H     1.3052718   -0.4508014   -0.3094760 
C    -0.4950419    0.2354683    0.5753172 
H    -0.9215028    1.2305123    0.7330729 
H    -1.3052718   -0.4508014    0.3094759 
O     0.1982408   -0.2182291    1.7339142 
H    -0.3950555   -0.1216393    2.4877547 
