10
Energy = -230.2234884295
H     0.3834962   -0.1898850   -2.4914962 
O    -0.1991882   -0.2486603   -1.7274212 
C     0.4858488    0.2707320   -0.5879390 
H     0.8652330    1.2788926   -0.7881128 
H     1.3330414   -0.3680993   -0.3152740 
C    -0.4858488    0.2707320    0.5879390 
H    -0.8652330    1.2788926    0.7881128 
H    -1.3330414   -0.3680993    0.3152740 
O     0.1991882   -0.2486603    1.7274212 
H    -0.3834962   -0.1898850    2.4914962 
