10
Energy = -230.2239876288
H     0.3851557   -0.1403694   -2.5021471 
O    -0.1981103   -0.2231094   -1.7408885 
C     0.4924109    0.2413365   -0.5816389 
H     0.9096242    1.2406987   -0.7473842 
H     1.3135003   -0.4347500   -0.3182156 
C    -0.4924109    0.2413366    0.5816389 
H    -0.9096241    1.2406988    0.7473841 
H    -1.3135004   -0.4347499    0.3182155 
O     0.1981103   -0.2231094    1.7408885 
H    -0.3851557   -0.1403690    2.5021471 
