10
Energy = -230.2139450385
H     0.0032173   -0.5802579   -2.2417925 
O    -0.0481384   -0.6316545   -1.2819048 
C     0.0755070    0.6847401   -0.7681764 
H    -0.6812103    1.3554844   -1.1930017 
H     1.0606110    1.0914550   -1.0314355 
C    -0.0755070    0.6847401    0.7681764 
H     0.6812104    1.3554844    1.1930017 
H    -1.0606110    1.0914550    1.0314355 
O     0.0481384   -0.6316545    1.2819048 
H    -0.0032165   -0.5802578    2.2417925 
