10
Energy =
H     0.0407226   -0.6709787   -2.1471907 
O    -0.0550017   -0.6432888   -1.1903767 
C     0.0782547    0.7061857   -0.7536227 
H    -0.6912513    1.3492715   -1.1965856 
H     1.0603466    1.1174969   -1.0148409 
C    -0.0782545    0.7061869    0.7536211 
H     0.6912407    1.3492836    1.1965897 
H    -1.0603528    1.1174869    1.0148283 
O     0.0550187   -0.6432843    1.1903800 
H    -0.0409766   -0.6710071    2.1471657 
