10
Energy = -230.2241429836
H     0.2201828   -0.5836556   -2.2482772 
O    -0.1585753   -0.5695655   -1.3638051 
C     0.2540994    0.6223368   -0.7128120 
H    -0.1371321    1.5190125   -1.2125640 
H     1.3501019    0.6895944   -0.7001830 
C    -0.2540996    0.6223367    0.7128120 
H     0.1371319    1.5190124    1.2125640 
H    -1.3501021    0.6895943    0.7001829 
O     0.1585751   -0.5695656    1.3638049 
H    -0.2201842   -0.5836565    2.2482765 
