10
Energy = -230.2258244328
H     0.3427305   -0.6422950   -2.2126574 
O    -0.1829876   -0.5344622   -1.4142363 
C     0.3004341    0.5904911   -0.6927805 
H     0.0235489    1.5311659   -1.1884650 
H     1.3934519    0.5584260   -0.6034188 
C    -0.3004340    0.5904911    0.6927806 
H    -0.0235486    1.5311659    1.1884650 
H    -1.3934518    0.5584262    0.6034188 
O     0.1829876   -0.5344622    1.4142363 
H    -0.3427296   -0.6422941    2.2126582 
