10
Energy = -230.2247881870
H     0.3909840   -0.0796145   -2.5113431 
O    -0.1968289   -0.1863915   -1.7568247 
C     0.5001178    0.1995513   -0.5735819 
H     0.9652431    1.1845303   -0.6907429 
H     1.2857960   -0.5241557   -0.3280732 
C    -0.5001177    0.1995513    0.5735819 
H    -0.9652430    1.1845303    0.6907429 
H    -1.2857960   -0.5241556    0.3280732 
O     0.1968289   -0.1863915    1.7568247 
H    -0.3909841   -0.0796147    2.5113431 
