10
Energy = -229.0254124459
H     0.3939594   -0.1514933   -2.4821540 
O    -0.1989612   -0.2336558   -1.7262182 
C     0.4913096    0.2532683   -0.5790951 
H     0.8960939    1.2538149   -0.7579303 
H     1.3170981   -0.4114790   -0.3069006 
C    -0.4913094    0.2532687    0.5790951 
H    -0.8960930    1.2538155    0.7579303 
H    -1.3170984   -0.4114780    0.3069004 
O     0.1989610   -0.2336560    1.7262181 
H    -0.3939608   -0.1514960    2.4821533 
