10
Energy =
H     0.4058840   -0.2419709   -2.4690895 
O    -0.1993451   -0.2325443   -1.7214121 
C     0.4926517    0.2552096   -0.5756502 
H     0.8628839    1.2748683   -0.7342259 
H     1.3464621   -0.3833745   -0.3204357 
C    -0.4926132    0.2552819    0.5756473 
H    -0.8627153    1.2749808    0.7342143 
H    -1.3465072   -0.3832009    0.3204248 
O     0.1993215   -0.2325222    1.7214246 
H    -0.4060918   -0.2424595    2.4689482 
