10
Energy =
H     0.0074160   -0.6765084   -2.1401521 
O    -0.0111453   -0.6486150   -1.1787521 
C     0.0157279    0.7120328   -0.7575048 
H    -0.8504842    1.2668232   -1.1367224 
H     0.9247139    1.2203333   -1.0999832 
C    -0.0157262    0.7120334    0.7575014 
H     0.8504720    1.2668267    1.1367243 
H    -0.9247266    1.2203341    1.0999664 
O     0.0111838   -0.6486106    1.1787561 
H    -0.0080230   -0.6765120    2.1401448 
