10
Energy = -229.0137207215
H     0.0009040   -0.5773834   -2.2218790 
O    -0.0099788   -0.6381501   -1.2593896 
C     0.0152153    0.6917972   -0.7709919 
H    -0.8440272    1.2588447   -1.1447491 
H     0.9215288    1.2043224   -1.1113704 
C    -0.0152150    0.6917973    0.7709919 
H     0.8440272    1.2588451    1.1447491 
H    -0.9215288    1.2043221    1.1113704 
O     0.0099796   -0.6381501    1.2593896 
H    -0.0009054   -0.5773834    2.2218790 
