10
Energy =
H    -0.0006059   -0.6771368   -2.1397873 
O     0.0000431   -0.6492010   -1.1781894 
C     0.0000162    0.7126793   -0.7576876 
H    -0.8886097    1.2446949   -1.1190406 
H     0.8886083    1.2447014   -1.1191073 
C    -0.0000144    0.7126793    0.7576847 
H     0.8885977    1.2446976    1.1190438 
H    -0.8886212    1.2447018    1.1190918 
O    -0.0000045   -0.6491986    1.1781921 
H    -0.0000016   -0.6771262    2.1397920 
10
Energy =
H     0.0074160   -0.6765084   -2.1401521 
O    -0.0111453   -0.6486150   -1.1787521 
C     0.0157279    0.7120328   -0.7575048 
H    -0.8504842    1.2668232   -1.1367224 
H     0.9247139    1.2203333   -1.0999832 
C    -0.0157262    0.7120334    0.7575014 
H     0.8504720    1.2668267    1.1367243 
H    -0.9247266    1.2203341    1.0999664 
O     0.0111838   -0.6486106    1.1787561 
H    -0.0080230   -0.6765120    2.1401448 
10
Energy =
H     0.0154690   -0.6757971   -2.1410454 
O    -0.0222859   -0.6479494   -1.1802064 
C     0.0314250    0.7113001   -0.7570164 
H    -0.8119317    1.2887761   -1.1534918 
H     0.9602998    1.1958231   -1.0800420 
C    -0.0314234    0.7113013    0.7570124 
H     0.8119191    1.2887803    1.1534923 
H    -0.9603124    1.1958242    1.0800240 
O     0.0223244   -0.6479431    1.1802117 
H    -0.0160752   -0.6758148    2.1410261 
10
Energy =
H     0.0235829   -0.6746225   -2.1425211 
O    -0.0333319   -0.6468397   -1.1826246 
C     0.0470927    0.7100799   -0.7562037 
H    -0.7724929    1.3098457   -1.1690987 
H     0.9948027    1.1704935   -1.0591584 
C    -0.0470912    0.7100817    0.7561992 
H     0.7724798    1.3098507    1.1690980 
H    -0.9948153    1.1704947    1.0591393 
O     0.0333705   -0.6468316    1.1826312 
H    -0.0241875   -0.6746545    2.1424898 
10
Energy =
H     0.0317860   -0.6729856   -2.1445726 
O    -0.0442373   -0.6452868   -1.1859977 
C     0.0627159    0.7083731   -0.7550688 
H    -0.7322244    1.3300175   -1.1834960 
H     1.0281807    1.1443617   -1.0373951 
C    -0.0627145    0.7083755    0.7550638 
H     0.7322108    1.3300234    1.1834939 
H    -1.0281932    1.1443629    1.0373749 
O     0.0442759   -0.6452767    1.1860056 
H    -0.0323883   -0.6730319    2.1445294 
10
Energy =
H     0.0401047   -0.6708874   -2.1471909 
O    -0.0549576   -0.6432916   -1.1903136 
C     0.0782792    0.7061808   -0.7536146 
H    -0.6911859    1.3492779   -1.1966397 
H     1.0603945    1.1174457   -1.0148178 
C    -0.0782780    0.7061837    0.7536091 
H     0.6911718    1.3492846    1.1966363 
H    -1.0604070    1.1174467    1.0147967 
O     0.0549961   -0.6432796    1.1903228 
H    -0.0407041   -0.6709480    2.1471360 
10
Energy =
H     0.0485627   -0.6683294   -2.1503645 
O    -0.0654502   -0.6408554   -1.1955563 
C     0.0937668    0.7035046   -0.7518448 
H    -0.6494404    1.3676136   -1.2084891 
H     1.0914079    1.0897639   -0.9914955 
C    -0.0937658    0.7035079    0.7518389 
H     0.6494257    1.3676210    1.2084844 
H    -1.0914204    1.0897647    0.9914735 
O     0.0654887   -0.6408416    1.1955666 
H    -0.0491585   -0.6684043    2.1502980 
10
Energy =
H     0.0571809   -0.6653133   -2.1540797 
O    -0.0756751   -0.6379801   -1.2017065 
C     0.1091623    0.7003462   -0.7497644 
H    -0.6070538    1.3850120   -1.2190074 
H     1.1211872    1.0613353   -0.9675003 
C    -0.1091615    0.7003500    0.7497581 
H     0.6070384    1.3850201    1.2190015 
H    -1.1211997    1.0613357    0.9674776 
O     0.0757135   -0.6379645    1.2017179 
H    -0.0577724   -0.6654026    2.1540016 
10
Energy =
H     0.0659763   -0.6618412   -2.1583203 
O    -0.0855948   -0.6346675   -1.2087413 
C     0.1244489    0.6967079   -0.7473793 
H    -0.5640951    1.4014612   -1.2281617 
H     1.1497021    1.0321794   -0.9429076 
C    -0.1244484    0.6967120    0.7473726 
H     0.5640789    1.4014699    1.2281546 
H    -1.1497146    1.0321792    0.9428842 
O     0.0856332   -0.6346501    1.2087539 
H    -0.0665628   -0.6619448    2.1582311 
10
Energy =
H     0.0749621   -0.6579154   -2.1630685 
O    -0.0951755   -0.6309199   -1.2166347 
C     0.1396092    0.6925921   -0.7446965 
H    -0.5206360    1.4169499   -1.2359233 
H     1.1769249    1.0023162   -0.9177958 
C    -0.1396089    0.6925965    0.7446895 
H     0.5206190    1.4169592    1.2359151 
H    -1.1769375    1.0023152    0.9177718 
O     0.0952138   -0.6309008    1.2166483 
H    -0.0755430   -0.6580335    2.1629683 
10
Energy =
H     0.0841473   -0.6535387   -2.1683045 
O    -0.1043866   -0.6267400   -1.2253573 
C     0.1546251    0.6880017   -0.7417242 
H    -0.4767512    1.4314676   -1.2422682 
H     1.2028318    0.9717662   -0.8922463 
C    -0.1546252    0.6880063    0.7417169 
H     0.4767331    1.4314774    1.2422588 
H    -1.2028444    0.9717642    0.8922219 
O     0.1044248   -0.6267191    1.2253719 
H    -0.0847219   -0.6536712    2.1681935 
10
Energy =
H     0.0935363   -0.6487141   -2.1740067 
O    -0.1132013   -0.6221304   -1.2348766 
C     0.1694784    0.6829398   -0.7384719 
H    -0.4325172    1.4450042   -1.2471771 
H     1.2274019    0.9405502   -0.8663434 
C    -0.1694789    0.6829445    0.7384645 
H     0.4324981    1.4450144    1.2471668 
H    -1.2274147    0.9405471    0.8663186 
O     0.1132395   -0.6221079    1.2348920 
H    -0.0941041   -0.6488610    2.1738854 
10
Energy =
H     0.1031292   -0.6434447   -2.1801522 
O    -0.1215971   -0.6170945   -1.2451569 
C     0.1841503    0.6774099   -0.7349506 
H    -0.3880127    1.4575506   -1.2506363 
H     1.2506184    0.9086898   -0.8401737 
C    -0.1841513    0.6774147    0.7349430 
H     0.3879924    1.4575611    1.2506251 
H    -1.2506313    0.9086853    0.8401487 
O     0.1216353   -0.6170704    1.2451732 
H    -0.1036895   -0.6436062    2.1800209 
10
Energy =
H     0.1129214   -0.6377344   -2.1867171 
O    -0.1295555   -0.6116357   -1.2561601 
C     0.1986221    0.6714158   -0.7311723 
H    -0.3433176    1.4690981   -1.2526375 
H     1.2724682    0.8762067   -0.8138262 
C    -0.1986236    0.6714205    0.7311645 
H     0.3432960    1.4691087    1.2526255 
H    -1.2724812    0.8762006    0.8138010 
O     0.1295936   -0.6116099    1.2561772 
H    -0.1134737   -0.6379103    2.1865761 
10
Energy =
H     0.1229041   -0.6315869   -2.1936759 
O    -0.1370623   -0.6057576   -1.2678450 
C     0.2128749    0.6649615   -0.7271505 
H    -0.2985128    1.4796388   -1.2531784 
H     1.2929424    0.8431231   -0.7873913 
C    -0.2128769    0.6649662    0.7271427 
H     0.2984897    1.4796495    1.2531656 
H    -1.2929555    0.8431153    0.7873660 
O     0.1371004   -0.6057303    1.2678628 
H    -0.1234477   -0.6317773    2.1935257 
10
Energy =
H     0.1330642   -0.6250064   -2.2010028 
O    -0.1441075   -0.5994644   -1.2801685 
C     0.2268898    0.6580516   -0.7229000 
H    -0.2536793    1.4891655   -1.2522626 
H     1.3120363    0.8094619   -0.7609608 
C    -0.2268925    0.6580560    0.7228921 
H     0.2536545    1.4891761    1.2522491 
H    -1.3120495    0.8094521    0.7609355 
O     0.1441456   -0.5994356    1.2801869 
H    -0.1335987   -0.6252114    2.2008439 
10
Energy =
H     0.1433849   -0.6179976   -2.2086713 
O    -0.1506855   -0.5927603   -1.2930850 
C     0.2406488    0.6506907   -0.7184367 
H    -0.2088974    1.4976717   -1.2499000 
H     1.3297495    0.7752460   -0.7346269 
C    -0.2406521    0.6506949    0.7184288 
H     0.2088709    1.4976820    1.2498859 
H    -1.3297629    0.7752340    0.7346017 
O     0.1507236   -0.5927300    1.2931040 
H    -0.1439096   -0.6182170    2.2085040 
10
Energy =
H     0.1538457   -0.6105652   -2.2166541 
O    -0.1567948   -0.5856500   -1.3065474 
C     0.2541339    0.6428839   -0.7137779 
H    -0.1642467    1.5051515   -1.2461069 
H     1.3460862    0.7404990   -0.7084817 
C    -0.2541380    0.6428877    0.7137700 
H     0.1642181    1.5051615    1.2460922 
H    -1.3460997    0.7404845    0.7084566 
O     0.1568329   -0.5856182    1.3065668 
H    -0.1543602   -0.6107990    2.2164791 
10
Energy =
H     0.1644233   -0.6027142   -2.2249240 
O    -0.1624375   -0.5781384   -1.3205068 
C     0.2673283    0.6346366   -0.7089416 
H    -0.1198043    1.5115998   -1.2409055 
H     1.3610549    0.7052445   -0.6826166 
C    -0.2673332    0.6346399    0.7089337 
H     0.1197735    1.5116092    1.2408904 
H    -1.3610687    0.7052273    0.6825916 
O     0.1624758   -0.5781051    1.3205267 
H    -0.1649272   -0.6029625    2.2247418 
10
Energy =
H     0.1750919   -0.5944502   -2.2334536 
O    -0.1676198   -0.5702305   -1.3349133 
C     0.2802160    0.6259544   -0.7039468 
H    -0.0756452    1.5170123   -1.2343245 
H     1.3746688    0.6695069   -0.6571214 
C    -0.2802218    0.6259570    0.7039390 
H     0.0756119    1.5170210    1.2343090 
H    -1.3746827    0.6694866    0.6570967 
O     0.1676582   -0.5701957    1.3349336 
H    -0.1755847   -0.5947127    2.2332647 
10
Energy =
H     0.1858235   -0.5857786   -2.2422155 
O    -0.1723509   -0.5619318   -1.3497162 
C     0.2927822    0.6168432   -0.6988135 
H    -0.0318409    1.5213851   -1.2263981 
H     1.3869451    0.6333106   -0.6320838 
C    -0.2927891    0.6168451    0.6988058 
H     0.0318047    1.5213929    1.2263823 
H    -1.3869592    0.6332870    0.6320594 
O     0.1723895   -0.5618956    1.3497368 
H    -0.1863048   -0.5860555    2.2420206 
10
Energy =
H     0.1965890   -0.5767056   -2.2511823 
O    -0.1766433   -0.5532480   -1.3648642 
C     0.3050136    0.6073094   -0.6935617 
H     0.0115410    1.5247154   -1.2171664 
H     1.3979052    0.5966805   -0.6075887 
C    -0.3050215    0.6073104    0.6935541 
H    -0.0115804    1.5247221    1.2171503 
H    -1.3979195    0.5966531    0.6075646 
O     0.1766822   -0.5532103    1.3648850 
H    -0.1970583   -0.5769966    2.2509820 
10
Energy =
H     0.2073581   -0.5672372   -2.2603271 
O    -0.1805120   -0.5441850   -1.3803056 
C     0.3168981    0.5973594   -0.6882122 
H     0.0544371    1.5270008   -1.2066743 
H     1.4075743    0.5596416   -0.5837172 
C    -0.3169073    0.5973594    0.6882048 
H    -0.0544802    1.5270062    1.2066580 
H    -1.4075888    0.5596101    0.5836935 
O     0.1805514   -0.5441459    1.3803266 
H    -0.2078151   -0.5675424    2.2601219 
10
Energy =
H     0.2181003   -0.5573799   -2.2696230 
O    -0.1839744   -0.5347492   -1.3959890 
C     0.3284254    0.5870001   -0.6827859 
H     0.0967891    1.5282398   -1.1949716 
H     1.4159812    0.5222195   -0.5605466 
C    -0.3284360    0.5869989    0.6827786 
H    -0.0968363    1.5282436    1.1949552 
H    -1.4159958    0.5221833    0.5605233 
O     0.1840143   -0.5347085    1.3960102 
H    -0.2185445   -0.5576993    2.2694136 
10
Energy =
H     0.2287851   -0.5471406   -2.2790435 
O    -0.1870497   -0.5249469   -1.4118634 
C     0.3395868    0.5762386   -0.6773033 
H     0.1385437    1.5284316   -1.1821122 
H     1.4231575    0.4844397   -0.5381495 
C    -0.3395989    0.5762360    0.6772962 
H    -0.1385956    1.5284334    1.1820957 
H    -1.4231723    0.4843983    0.5381266 
O     0.1870902   -0.5249046    1.4118846 
H    -0.2292162   -0.5474741    2.2788305 
10
Energy =
H     0.2393827   -0.5365262   -2.2885624 
O    -0.1897585   -0.5147848   -1.4278781 
C     0.3503751    0.5650823   -0.6717852 
H     0.1796532    1.5275760   -1.1681536 
H     1.4291380    0.4463284   -0.5165933 
C    -0.3503890    0.5650780    0.6717783 
H    -0.1797106    1.5275756    1.1681370 
H    -1.4291530    0.4462809    0.5165709 
O     0.1897998   -0.5147409    1.4278993 
H    -0.2398003   -0.5368738    2.2883466 
10
Energy =
H     0.2498642   -0.5255440   -2.2981542 
O    -0.1921228   -0.5042700   -1.4439836 
C     0.3607851    0.5535388   -0.6662516 
H     0.2200755    1.5256738   -1.1531563 
H     1.4339595    0.4079116   -0.4959404 
C    -0.3608010    0.5535326    0.6662448 
H    -0.2201392    1.5256707    1.1531398 
H    -1.4339745    0.4078573    0.4959184 
O     0.1921651   -0.5042244    1.4440048 
H    -0.2502678   -0.5259056    2.2979360 
10
Energy =
H     0.2602019   -0.5142014   -2.3077932 
O    -0.1941650   -0.4934097   -1.4601312 
C     0.3708130    0.5416162   -0.6607220 
H     0.2597739    1.5227262   -1.1371833 
H     1.4376604    0.3692158   -0.4762472 
C    -0.3708312    0.5416077    0.6607155 
H    -0.2598451    1.5227198    1.1371668 
H    -1.4376755    0.3691535    0.4762258 
O     0.1942086   -0.4933623    1.4601524 
H    -0.2605912   -0.5145772    2.3075735 
10
Energy =
H     0.2703699   -0.5025062   -2.3174547 
O    -0.1959080   -0.4822113   -1.4762737 
C     0.3804566    0.5293227   -0.6552154 
H     0.2987177    1.5187353   -1.1202994 
H     1.4402810    0.3302677   -0.4575646 
C    -0.3804775    0.5293113    0.6552091 
H    -0.2987977    1.5187250    1.1202830 
H    -1.4402960    0.3301960    0.4575437 
O     0.1959533   -0.4821619    1.4762947 
H    -0.2707443   -0.5028963    2.3172340 
10
Energy =
H     0.2803438   -0.4904664   -2.3271139 
O    -0.1973750   -0.4706826   -1.4923649 
C     0.3897153    0.5166666   -0.6497498 
H     0.3368813    1.5137040   -1.1025707 
H     1.4418619    0.2910942   -0.4399376 
C    -0.3897395    0.5166519    0.6497437 
H    -0.3369722    1.5136890    1.1025544 
H    -1.4418768    0.2910113    0.4399172 
O     0.1974224   -0.4706309    1.4923857 
H    -0.2807028   -0.4908710    2.3268929 
10
Energy =
H     0.2901014   -0.4780901   -2.3367466 
O    -0.1985888   -0.4588315   -1.5083605 
C     0.3985899    0.5036569   -0.6443423 
H     0.3742446    1.5076359   -1.0840640 
H     1.4424445    0.2517224   -0.4234054 
C    -0.3986180    0.5036379    0.6443364 
H    -0.3743488    1.5076149    1.0840478 
H    -1.4424592    0.2516258    0.4233855 
O     0.1986389   -0.4587772    1.5083811 
H    -0.2904443   -0.4785096    2.3365259 
10
Energy =
H     0.2996225   -0.4653857   -2.3463289 
O    -0.1995717   -0.4466661   -1.5242174 
C     0.4070825    0.4903026   -0.6390089 
H     0.4107923    1.5005354   -1.0648465 
H     1.4420703    0.2121799   -0.4080015 
C    -0.4071154    0.4902782    0.6390032 
H    -0.4109132    1.5005067    1.0648305 
H    -1.4420845    0.2120661    0.4079822 
O     0.1996255   -0.4466088    1.5242378 
H    -0.2999482   -0.4658207    2.3461092 
10
Energy =
H     0.3088889   -0.4523617   -2.3558374 
O    -0.2003455   -0.4341950   -1.5398945 
C     0.4151960    0.4766131   -0.6337648 
H     0.4465134    1.4924077   -1.0449853 
H     1.4407802    0.1724946   -0.3937538 
C    -0.4152351    0.4765817    0.6337593 
H    -0.4466563    1.4923690    1.0449695 
H    -1.4407937    0.1723586    0.3937351 
O     0.2004041   -0.4341340    1.5399145 
H    -0.3091962   -0.4528132    2.3556192 
10
Energy =
H     0.3178848   -0.4390267   -2.3652489 
O    -0.2009311   -0.4214269   -1.5553521 
C     0.4229344    0.4625982   -0.6286239 
H     0.4814010    1.4832590   -1.0245469 
H     1.4386148    0.1326950   -0.3806850 
C    -0.4229819    0.4625573    0.6286186 
H    -0.4815735    1.4832066    1.0245313 
H    -1.4386270    0.1325289    0.3806668 
O     0.2009964   -0.4213611    1.5553718 
H    -0.3181717   -0.4394963    2.3650330 
10
Energy =
H     0.3265966   -0.4253891   -2.3745408 
O    -0.2013480   -0.4083709   -1.5705524 
C     0.4303025    0.4482684   -0.6235991 
H     0.5154508    1.4730967   -1.0035969 
H     1.4356135    0.0928109   -0.3688126 
C    -0.4303617    0.4482137    0.6235940 
H    -0.5156659    1.4730247    1.0035815 
H    -1.4356236    0.0926020    0.3687950 
O     0.2014232   -0.4082985    1.5705717 
H    -0.3268598   -0.4258800    2.3743276 
10
Energy =
H     0.3350136   -0.4114570   -2.3836907 
O    -0.2016141   -0.3950367   -1.5854592 
C     0.4373046    0.4336352   -0.6187020 
H     0.5486596    1.4619305   -0.9821999 
H     1.4318147    0.0528750   -0.3581492 
C    -0.4373819    0.4335591    0.6186971 
H    -0.5489408    1.4618277    0.9821847 
H    -1.4318212    0.0525998    0.3581321 
O     0.2017050   -0.3949543    1.5854781 
H    -0.3352470   -0.4119747    2.3834809 
10
Energy =
H     0.3431286   -0.3972363   -2.3926768 
O    -0.2017445   -0.3814354   -1.6000381 
C     0.4439439    0.4187131   -0.6139435 
H     0.5810189    1.4497741   -0.9604190 
H     1.4272560    0.0129283   -0.3487032 
C    -0.4440528    0.4185992    0.6139388 
H    -0.5814169    1.4496170    0.9604042 
H    -1.4272557    0.0125361    0.3486867 
O     0.2018634   -0.3813358    1.6000566 
H    -0.3433195   -0.3977937    2.3924709 
10
Energy =
H     0.3509452   -0.3827247   -2.4014777 
O    -0.2017446   -0.3675831   -1.6142565 
C     0.4502147    0.4035276   -0.6093332 
H     0.6124896    1.4366582   -0.9383161 
H     1.4219753   -0.0269546   -0.3404785 
C    -0.4503942    0.4033286    0.6093287 
H    -0.6131497    1.4363786    0.9383015 
H    -1.4219588   -0.0276089    0.3404626 
O     0.2019270   -0.3674456    1.6142745 
H    -0.3510566   -0.3833587    2.4012762 
10
Energy =
H     0.3585478   -0.3678396   -2.4100724 
O    -0.2015425   -0.3535407   -1.6280834 
C     0.4560280    0.3882066   -0.6048796 
H     0.6427215    1.4227605   -0.9159512 
H     1.4160290   -0.0663860   -0.3334755 
C    -0.4565101    0.3876406    0.6048753 
H    -0.6445101    1.4219527    0.9159369 
H    -1.4159402   -0.0681679    0.3334602 
O     0.2019996   -0.3532417    1.6281008 
H    -0.3583595   -0.3687722    2.4098758 
10
Energy =
H     0.3650953   -0.3534350   -2.4184406 
O    -0.2019552   -0.3388484   -1.6414893 
C     0.4622722    0.3716906   -0.6005906 
H     0.6750165    1.4065503   -0.8933825 
H     1.4092355   -0.1086246   -0.3276908 
C    -0.4615275    0.3726156    0.6005865 
H    -0.6722218    1.4078892    0.8933685 
H    -1.4094441   -0.1058275    0.3276761 
O     0.2012939   -0.3392031    1.6415062 
H    -0.3660592   -0.3531997    2.4182494 
10
Energy =
H     0.3721439   -0.3379456   -2.4265625 
O    -0.2014987   -0.3243929   -1.6544466 
C     0.4673112    0.3559886   -0.5964729 
H     0.7032481    1.3909153   -0.8706667 
H     1.4020226   -0.1475073   -0.3231180 
C    -0.4670991    0.3562672    0.5964690 
H    -0.7024411    1.3913238    0.8706531 
H    -1.4021034   -0.1466961    0.3231038 
O     0.2013218   -0.3244636    1.6544629 
H    -0.3725898   -0.3382288    2.4263772 
10
Energy =
H     0.3786447   -0.3224375   -2.4344187 
O    -0.2011891   -0.3095964   -1.6669291 
C     0.4722543    0.3397724   -0.5925326 
H     0.7315467    1.3739377   -0.8478586 
H     1.3941497   -0.1871182   -0.3197476 
C    -0.4721305    0.3399445    0.5925288 
H    -0.7310677    1.3741930    0.8478453 
H    -1.3942101   -0.1866348    0.3197339 
O     0.2010918   -0.3096199    1.6669448 
H    -0.3789945   -0.3228128    2.4342397 
10
Energy =
H     0.3847821   -0.3067333   -2.4419907 
O    -0.2008593   -0.2945740   -1.6789122 
C     0.4769133    0.3232919   -0.5887748 
H     0.7591962    1.3559731   -0.8250111 
H     1.3856898   -0.2266976   -0.3175676 
C    -0.4768260    0.3234203    0.5887712 
H    -0.7588521    1.3561656    0.8249981 
H    -1.3857424   -0.2263490    0.3175545 
O     0.2007945   -0.2945779    1.6789274 
H    -0.3850849   -0.3071507    2.4418185 
10
Energy =
H     0.3905716   -0.2908267   -2.4492606 
O    -0.2005039   -0.2793453   -1.6903730 
C     0.4812784    0.3065798   -0.5852040 
H     0.7861486    1.3370648   -0.8021753 
H     1.3766704   -0.2661523   -0.3165638 
C    -0.4812112    0.3066844    0.5852006 
H    -0.7858781    1.3372233    0.8021627 
H    -1.3767191   -0.2658772    0.3165512 
O     0.2004566   -0.2793384    1.6903875 
H    -0.3908430   -0.2912701    2.4490956 
10
Energy =
H     0.3960173   -0.2747244   -2.4562112 
O    -0.2001282   -0.2639232   -1.7012898 
C     0.4853526    0.2896531   -0.5818242 
H     0.8124051    1.3172336   -0.7794009 
H     1.3671135   -0.3054383   -0.3167196 
C    -0.4852983    0.2897428    0.5818210 
H    -0.8121811    1.3173709    0.7793887 
H    -1.3671601   -0.3052096    0.3167076 
O     0.2000919   -0.2639094    1.7013036 
H    -0.3962643   -0.2751864    2.4560537 
10
Energy =
H     0.4011209   -0.2584356   -2.4628260 
O    -0.1997396   -0.2483192   -1.7116424 
C     0.4891416    0.2725255   -0.5786387 
H     0.8379782    1.2964963   -0.7567357 
H     1.3570383   -0.3445223   -0.3180168 
C    -0.4890963    0.2726051    0.5786356 
H    -0.8377862    1.2966191    0.7567238 
H    -1.3570839   -0.3443254    0.3180055 
O     0.1997106   -0.2483006    1.7116556 
H    -0.4013472   -0.2589123    2.4626765 
10
Energy =
H     0.4058840   -0.2419709   -2.4690895 
O    -0.1993451   -0.2325443   -1.7214121 
C     0.4926517    0.2552096   -0.5756502 
H     0.8628839    1.2748683   -0.7342259 
H     1.3464621   -0.3833745   -0.3204357 
C    -0.4926132    0.2552819    0.5756473 
H    -0.8627153    1.2749808    0.7342143 
H    -1.3465072   -0.3832009    0.3204248 
O     0.1993215   -0.2325222    1.7214246 
H    -0.4060918   -0.2424595    2.4689482 
10
Energy =
H     0.4103081   -0.2253411   -2.4749867 
O    -0.1989514   -0.2166097   -1.7305815 
C     0.4958894    0.2377180   -0.5728612 
H     0.8871394    1.2523652   -0.7119162 
H     1.3353999   -0.4219669   -0.3239547 
C    -0.4958562    0.2377847    0.5728585 
H    -0.8869888    1.2524700    0.7119051 
H    -1.3354449   -0.4218109    0.3239444 
O     0.1989318   -0.2165849    1.7305933 
H    -0.4104989   -0.2258398    2.4748541 
10
Energy =
H     0.4143949   -0.2085573   -2.4805039 
O    -0.1985648   -0.2005264   -1.7391346 
C     0.4988609    0.2200628   -0.5702737 
H     0.9107628    1.2290029   -0.6898500 
H     1.3238647   -0.4602720   -0.3285513 
C    -0.4988319    0.2201252    0.5702711 
H    -0.9106263    1.2291017    0.6898393 
H    -1.3239099   -0.4601299    0.3285416 
O     0.1985483   -0.2004994    1.7391457 
H    -0.4145698   -0.2090648    2.4803801 
10
Energy =
H     0.4181463   -0.1916310   -2.4856279 
O    -0.1981907   -0.1843054   -1.7470566 
C     0.5015719    0.2022563   -0.5678891 
H     0.9337718    1.2047976   -0.6680693 
H     1.3118678   -0.4982631   -0.3342018 
C    -0.5015465    0.2023152    0.5678866 
H    -0.9336467    1.2048918    0.6680590 
H    -1.3119133   -0.4981322    0.3341927 
O     0.1981767   -0.1842767    1.7470669 
H    -0.4183059   -0.1921462    2.4855132 
10
Energy =
H     0.4215642   -0.1745736   -2.4903467 
O    -0.1978340   -0.1679580   -1.7543341 
C     0.5040281    0.1843108   -0.5657089 
H     0.9561840    1.1797660   -0.6466148 
H     1.2994184   -0.5359137   -0.3408815 
C    -0.5040058    0.1843670    0.5657066 
H    -0.9560685    1.1798566    0.6466049 
H    -1.2994646   -0.5357919    0.3408729 
O     0.1978220   -0.1679278    1.7543436 
H    -0.4217089   -0.1750956    2.4902414 
10
Energy =
H     0.4246505   -0.1573969   -2.4946492 
O    -0.1974992   -0.1514953   -1.7609548 
C     0.5062345    0.1662388   -0.5637340 
H     0.9780167    1.1539255   -0.6255261 
H     1.2865243   -0.5731978   -0.3485647 
C    -0.5062149    0.1662927    0.5637319 
H    -0.9779093    1.1540132    0.6255166 
H    -1.2865712   -0.5730837    0.3485566 
O     0.1974889   -0.1514639    1.7609636 
H    -0.4247808   -0.1579248    2.4945535 
10
Energy =
H     0.4274071   -0.1401124   -2.4985251 
O    -0.1971901   -0.1349287   -1.7669078 
C     0.5081959    0.1480526   -0.5619655 
H     0.9992865    1.1272938   -0.6048416 
H     1.2731913   -0.6100898   -0.3572251 
C    -0.5081786    0.1481046    0.5619634 
H    -0.9991859    1.1273793    0.6048325 
H    -1.2732390   -0.6099821    0.3572176 
O     0.1971812   -0.1348964    1.7669157 
H    -0.4275234   -0.1406455    2.4984393 
10
Energy =
H     0.4298359   -0.1227320   -2.5019655 
O    -0.1969100   -0.1182696   -1.7721832 
C     0.5099163    0.1297647   -0.5604038 
H     1.0200092    1.0998893   -0.5845990 
H     1.2594237   -0.6465641   -0.3668356 
C    -0.5099012    0.1298152    0.5604019 
H    -1.0199146    1.0999730    0.5845903 
H    -1.2594724   -0.6464619    0.3668287 
O     0.1969022   -0.1182364    1.7721903 
H    -0.4299384   -0.1232698    2.5018896 
10
Energy =
H     0.4319386   -0.1052677   -2.5049621 
O    -0.1966617   -0.1015294   -1.7767725 
C     0.5113996    0.1113878   -0.5590495 
H     1.0402001    1.0717306   -0.5648346 
H     1.2452243   -0.6825957   -0.3773685 
C    -0.5113865    0.1114370    0.5590478 
H    -1.0401107    1.0718131    0.5648264 
H    -1.2452741   -0.6824982    0.3773621 
O     0.1966550   -0.1014955    1.7767788 
H    -0.4320276   -0.1058094    2.5048964 
10
Energy =
H     0.4337169   -0.0877313   -2.5075079 
O    -0.1964478   -0.0847196   -1.7806682 
C     0.5126491    0.0929344   -0.5579031 
H     1.0598734    1.0428373   -0.5455843 
H     1.2305941   -0.7181599   -0.3887956 
C    -0.5126378    0.0929826    0.5579015 
H    -1.0597887    1.0429188    0.5455765 
H    -1.2306451   -0.7180664    0.3887897 
O     0.1964420   -0.0846851    1.7806738 
H    -0.4337924   -0.0882764    2.5074526 
10
Energy =
H     0.4351721   -0.0701349   -2.5095970 
O    -0.1962701   -0.0678516   -1.7838642 
C     0.5136674    0.0744172   -0.5569648 
H     1.0790426    1.0132290   -0.5268830 
H     1.2155329   -0.7532323   -0.4010879 
C    -0.5136579    0.0744645    0.5569633 
H    -1.0789620    1.0133100    0.5268756 
H    -1.2155853   -0.7531422    0.4010826 
O     0.1962651   -0.0678167    1.7838690 
H    -0.4352343   -0.0706827    2.5095521 
10
Energy =
H     0.4363054   -0.0524906   -2.5112244 
O    -0.1961303   -0.0509371   -1.7863554 
C     0.5144569    0.0558489   -0.5562349 
H     1.0977201    0.9829262   -0.5087648 
H     1.2000391   -0.7877886   -0.4142163 
C    -0.5144490    0.0558955    0.5562335 
H    -1.0976432    0.9830068    0.5087579 
H    -1.2000929   -0.7877015    0.4142115 
O     0.1961260   -0.0509018    1.7863593 
H    -0.4363544   -0.0530406    2.5111900 
10
Energy =
H     0.4371179   -0.0348103   -2.5123863 
O    -0.1960296   -0.0339876   -1.7881377 
C     0.5150193    0.0372422   -0.5557134 
H     1.1159173    0.9519495   -0.4912634 
H     1.1841094   -0.8218053   -0.4281508 
C    -0.5150130    0.0372883    0.5557122 
H    -1.1158438    0.9520302    0.4912569 
H    -1.1841649   -0.8217207    0.4281465 
O     0.1960260   -0.0339521    1.7881408 
H    -0.4371537   -0.0353620    2.5123625 
10
Energy =
H     0.4376100   -0.0171062   -2.5130800 
O    -0.1959689   -0.0170149   -1.7892083 
C     0.5153558    0.0186099   -0.5554005 
H     1.1336446    0.9203202   -0.4744116 
H     1.1677396   -0.8552590   -0.4428612 
C    -0.5153511    0.0186556    0.5553994 
H    -1.1335742    0.9204012    0.4744056 
H    -1.1677968   -0.8551765    0.4428574 
O     0.1959660   -0.0169791    1.7892106 
H    -0.4376328   -0.0176591    2.5130668 
10
Energy =
H     0.4377824    0.0006095   -2.5133039 
O    -0.1959487   -0.0000304   -1.7895656 
C     0.5154673   -0.0000353   -0.5552962 
H     1.1509112    0.8880600   -0.4582417 
H     1.1509238   -0.8881268   -0.4583166 
C    -0.5154642    0.0000103    0.5552952 
H    -1.1508436    0.8881416    0.4582361 
H    -1.1509830   -0.8880461    0.4583133 
O     0.1959464    0.0000054    1.7895671 
H    -0.4377921    0.0000560    2.5133013 
