10
Energy = -229.0136518119
H    -0.0000178   -0.5775995   -2.2217846 
O     0.0000039   -0.6383469   -1.2592309 
C     0.0000004    0.6920082   -0.7712642 
H    -0.8833229    1.2320268   -1.1287959 
H     0.8833229    1.2320289   -1.1287940 
C     0.0000002    0.6920083    0.7712642 
H     0.8833223    1.2320299    1.1287941 
H    -0.8833235    1.2320261    1.1287957 
O     0.0000035   -0.6383468    1.2592309 
H     0.0000672   -0.5775993    2.2217846 
10
Energy = -229.0137207215
H     0.0009040   -0.5773834   -2.2218790 
O    -0.0099788   -0.6381501   -1.2593896 
C     0.0152153    0.6917972   -0.7709919 
H    -0.8440272    1.2588447   -1.1447491 
H     0.9215288    1.2043224   -1.1113704 
C    -0.0152150    0.6917973    0.7709919 
H     0.8440272    1.2588451    1.1447491 
H    -0.9215288    1.2043221    1.1113704 
O     0.0099796   -0.6381501    1.2593896 
H    -0.0009054   -0.5773834    2.2218790 
10
Energy = -229.0139260305
H     0.0019151   -0.5767451   -2.2221680 
O    -0.0199193   -0.6375585   -1.2598729 
C     0.0304255    0.6911711   -0.7701794 
H    -0.8037675    1.2846256   -1.1592305 
H     0.9585355    1.1758664   -1.0925353 
C    -0.0304257    0.6911711    0.7701794 
H     0.8037672    1.2846258    1.1592305 
H    -0.9585358    1.1758661    1.0925352 
O     0.0199195   -0.6375585    1.2598729 
H    -0.0019148   -0.5767450    2.2221680 
10
Energy = -229.0142628114
H     0.0033995   -0.5756855   -2.2226610 
O    -0.0298402   -0.6365664   -1.2607046 
C     0.0455907    0.6901359   -0.7688431 
H    -0.7627336    1.3092440   -1.1722066 
H     0.9942026    1.1468166   -1.0723880 
C    -0.0455908    0.6901359    0.7688431 
H     0.7627336    1.3092439    1.1722066 
H    -0.9942026    1.1468167    1.0723881 
O     0.0298399   -0.6365664    1.2607046 
H    -0.0033981   -0.5756854    2.2226610 
10
Energy = -229.0147241453
H     0.0056253   -0.5742624   -2.2233562 
O    -0.0396750   -0.6351774   -1.2619060 
C     0.0607228    0.6886810   -0.7670048 
H    -0.7210305    1.3325956   -1.1837147 
H     1.0284866    1.1172962   -1.0509855 
C    -0.0607228    0.6886810    0.7670048 
H     0.7210304    1.3325956    1.1837147 
H    -1.0284866    1.1172961    1.0509855 
O     0.0396750   -0.6351774    1.2619060 
H    -0.0056245   -0.5742623    2.2233562 
10
Energy = -229.0152991600
H     0.0088996   -0.5725145   -2.2242411 
O    -0.0494318   -0.6333903   -1.2635067 
C     0.0757900    0.6868171   -0.7646913 
H    -0.6788329    1.3545948   -1.1937795 
H     1.0613076    1.0874206   -1.0284519 
C    -0.0757901    0.6868171    0.7646913 
H     0.6788329    1.3545947    1.1937795 
H    -1.0613076    1.0874208    1.0284520 
O     0.0494314   -0.6333903    1.2635067 
H    -0.0088971   -0.5725143    2.2242412 
10
Energy = -229.0159758220
H     0.0134070   -0.5705241   -2.2253221 
O    -0.0590819   -0.6312020   -1.2655583 
C     0.0907810    0.6845356   -0.7619400 
H    -0.6362625    1.3751946   -1.2024450 
H     1.0926336    1.0572803   -1.0048973 
C    -0.0907811    0.6845356    0.7619400 
H     0.6362625    1.3751944    1.2024451 
H    -1.0926337    1.0572805    1.0048973 
O     0.0590816   -0.6312021    1.2655583 
H    -0.0134049   -0.5705239    2.2253222 
10
Energy = -229.0167394246
H     0.0192931   -0.5683608   -2.2265819 
O    -0.0686045   -0.6286113   -1.2681025 
C     0.1056815    0.6818392   -0.7587861 
H    -0.5934388    1.3943620   -1.2097721 
H     1.1224468    1.0269444   -0.9804354 
C    -0.1056815    0.6818392    0.7587861 
H     0.5934387    1.3943620    1.2097721 
H    -1.1224468    1.0269444    0.9804354 
O     0.0686044   -0.6286113    1.2681025 
H    -0.0192928   -0.5683607    2.2265819 
10
Energy = -229.0175737600
H     0.0267261   -0.5661061   -2.2280072 
O    -0.0779664   -0.6256161   -1.2711972 
C     0.1204822    0.6787257   -0.7552647 
H    -0.5504682    1.4120814   -1.2158090 
H     1.1507451    0.9964656   -0.9551790 
C    -0.1204822    0.6787257    0.7552647 
H     0.5504682    1.4120815    1.2158090 
H    -1.1507451    0.9964655    0.9551790 
O     0.0779666   -0.6256161    1.2711972 
H    -0.0267262   -0.5661061    2.2280072 
10
Energy = -229.0184618989
H     0.0359158   -0.5638988   -2.2295493 
O    -0.0872054   -0.6222015   -1.2748915 
C     0.1351319    0.6751976   -0.7514247 
H    -0.5074838    1.4283810   -1.2205992 
H     1.1774992    0.9658748   -0.9292960 
C    -0.1351318    0.6751976    0.7514246 
H     0.5074838    1.4283811    1.2205992 
H    -1.1774992    0.9658748    0.9292959 
O     0.0872055   -0.6222015    1.2748915 
H    -0.0359165   -0.5638989    2.2295492 
10
Energy = -229.0193861129
H     0.0468225   -0.5617940   -2.2312100 
O    -0.0962374   -0.6183712   -1.2792652 
C     0.1496470    0.6712443   -0.7472971 
H    -0.4645355    1.4432542   -1.2242131 
H     1.2027483    0.9352008   -0.9028789 
C    -0.1496470    0.6712443    0.7472970 
H     0.4645354    1.4432543    1.2242130 
H    -1.2027483    0.9352007    0.9028788 
O     0.0962376   -0.6183711    1.2792653 
H    -0.0468247   -0.5617945    2.2312097 
10
Energy = -229.0203286610
H     0.0596302   -0.5599529   -2.2329045 
O    -0.1050679   -0.6141147   -1.2843599 
C     0.1639930    0.6668670   -0.7429216 
H    -0.4217159    1.4567441   -1.2266863 
H     1.2264921    0.9044535   -0.8760736 
C    -0.1639929    0.6668670    0.7429216 
H     0.4217156    1.4567445    1.2266862 
H    -1.2264921    0.9044531    0.8760733 
O     0.1050685   -0.6141144    1.2843601 
H    -0.0596359   -0.5599543    2.2329037 
10
Energy = -229.0212723679
H     0.0744566   -0.5585309   -2.2345523 
O    -0.1136808   -0.6094217   -1.2902355 
C     0.1781436    0.6620618   -0.7383373 
H    -0.3790875    1.4688945   -1.2280661 
H     1.2487456    0.8736211   -0.8490075 
C    -0.1781436    0.6620619    0.7383372 
H     0.3790870    1.4688949    1.2280660 
H    -1.2487458    0.8736208    0.8490071 
O     0.1136813   -0.6094214    1.2902357 
H    -0.0744645   -0.5585330    2.2345509 
10
Energy = -229.0222006803
H     0.0912678   -0.5576607   -2.2360737 
O    -0.1220560   -0.6042815   -1.2969474 
C     0.1920730    0.6568276   -0.7335803 
H    -0.3367115    1.4797532   -1.2283857 
H     1.2695255    0.8426986   -0.8218169 
C    -0.1920729    0.6568278    0.7335801 
H     0.3367106    1.4797542    1.2283852 
H    -1.2695256    0.8426976    0.8218162 
O     0.1220575   -0.6042805    1.2969479 
H    -0.0912836   -0.5576653    2.2360705 
10
Energy = -229.0230985080
H     0.1103178   -0.5576277   -2.2372818 
O    -0.1301874   -0.5986828   -1.3045307 
C     0.2057489    0.6511640   -0.7286886 
H    -0.2946363    1.4893789   -1.2276780 
H     1.2888477    0.8116619   -0.7946398 
C    -0.2057485    0.6511643    0.7286884 
H     0.2946354    1.4893803    1.2276774 
H    -1.2888475    0.8116607    0.7946392 
O     0.1301895   -0.5986816    1.3045315 
H    -0.1103334   -0.5576328    2.2372783 
10
Energy = -229.0239522404
H     0.1317940   -0.5587586   -2.2379397 
O    -0.1380676   -0.5926129   -1.3130119 
C     0.2191386    0.6450753   -0.7236982 
H    -0.2528974    1.4978321   -1.2259776 
H     1.3067302    0.7804832   -0.7676071 
C    -0.2191390    0.6450756    0.7236976 
H     0.2528944    1.4978342    1.2259766 
H    -1.3067309    0.7804807    0.7676051 
O     0.1380704   -0.5926107    1.3130130 
H    -0.1318403   -0.5587763    2.2379272 
10
Energy = -229.0247496235
H     0.1553286   -0.5611957   -2.2379090 
O    -0.1456723   -0.5860595   -1.3224040 
C     0.2322245    0.6385713   -0.7186400 
H    -0.2115004    1.5051706   -1.2233240 
H     1.3232090    0.7491207   -0.7408321 
C    -0.2322249    0.6385716    0.7186395 
H     0.2114978    1.5051722    1.2233233 
H    -1.3232096    0.7491187    0.7408303 
O     0.1456742   -0.5860578    1.3224049 
H    -0.1553571   -0.5612079    2.2379001 
10
Energy = -229.0254807589
H     0.1811967   -0.5654611   -2.2367781 
O    -0.1530023   -0.5790135   -1.3326777 
C     0.2449802    0.6316671   -0.7135452 
H    -0.1704465    1.5114513   -1.2197641 
H     1.3383084    0.7175326   -0.7144207 
C    -0.2449800    0.6316676    0.7135448 
H     0.1704433    1.5114543    1.2197625 
H    -1.3383084    0.7175292    0.7144191 
O     0.1530067   -0.5790101    1.3326798 
H    -0.1812343   -0.5654786    2.2367649 
10
Energy = -229.0261369690
H     0.2092528   -0.5719532   -2.2341872 
O    -0.1600416   -0.5714621   -1.3438023 
C     0.2573967    0.6243895   -0.7084377 
H    -0.1297004    1.5167299   -1.2153619 
H     1.3520697    0.6856668   -0.6884533 
C    -0.2573958    0.6243900    0.7084376 
H     0.1296978    1.5167327    1.2153605 
H    -1.3520690    0.6856636    0.6884522 
O     0.1600461   -0.5714588    1.3438048 
H    -0.2092785   -0.5719664    2.2341772 
10
Energy = -229.0267118497
H     0.2393565   -0.5811548   -2.2297038 
O    -0.1667751   -0.5633943   -1.3557534 
C     0.2694614    0.6167595   -0.7033430 
H    -0.0892261    1.5210516   -1.2101667 
H     1.3645206    0.6534681   -0.6630098 
C    -0.2694620    0.6167596    0.7033426 
H     0.0892234    1.5210529    1.2101658 
H    -1.3645212    0.6534658    0.6630086 
O     0.1667770   -0.5633925    1.3557544 
H    -0.2393795   -0.5811686    2.2296929 
10
Energy = -229.0272000331
H     0.2712430   -0.5936405   -2.2227948 
O    -0.1731732   -0.5548059   -1.3684498 
C     0.2811896    0.6088106   -0.6982720 
H    -0.0489483    1.5244494   -1.2042482 
H     1.3757064    0.6208911   -0.6381245 
C    -0.2811898    0.6088107    0.6982718 
H     0.0489469    1.5244501    1.2042478 
H    -1.3757066    0.6208899    0.6381239 
O     0.1731741   -0.5548049    1.3684503 
H    -0.2712528   -0.5936472    2.2227894 
10
Energy = -229.0275966074
H     0.3039088   -0.6094137   -2.2133315 
O    -0.1791662   -0.5456990   -1.3818555 
C     0.2926073    0.6005645   -0.6932251 
H    -0.0088187    1.5269351   -1.1976360 
H     1.3856834    0.5878987   -0.6138206 
C    -0.2926075    0.6005644    0.6932250 
H     0.0088179    1.5269353    1.1976359 
H    -1.3856836    0.5878980    0.6138202 
O     0.1791666   -0.5456986    1.3818558 
H    -0.3039130   -0.6094171    2.2133287 
10
Energy = -229.0278971386
H     0.3361184   -0.6281379   -2.2014945 
O    -0.1846463   -0.5360969   -1.3959199 
C     0.3037675    0.5920254   -0.6881925 
H     0.0312216    1.5284967   -1.1903592 
H     1.3945177    0.5544794   -0.5901052 
C    -0.3037674    0.5920256    0.6881925 
H    -0.0312230    1.5284978    1.1903584 
H    -1.3945175    0.5544779    0.5901051 
O     0.1846480   -0.5360952    1.3959214 
H    -0.3361269   -0.6281452    2.2014884 
10
Energy = -229.0280979154
H     0.3661977   -0.6486904   -2.1881610 
O    -0.1894908   -0.5260513   -1.4105811 
C     0.3147303    0.5831592   -0.6831493 
H     0.0711783    1.5290918   -1.1823770 
H     1.4022880    0.5206152   -0.5669549 
C    -0.3147304    0.5831591    0.6831492 
H    -0.0711780    1.5290915    1.1823773 
H    -1.4022881    0.5206155    0.5669548 
O     0.1894903   -0.5260518    1.4105806 
H    -0.3661961   -0.6486888    2.1881624 
10
Energy = -229.0281963037
H     0.3915371   -0.6679275   -2.1760372 
O    -0.1935285   -0.5156687   -1.4258030 
C     0.3255618    0.5738597   -0.6780660 
H     0.1109968    1.5286520   -1.1735495 
H     1.4090957    0.4862776   -0.5443769 
C    -0.3255615    0.5738599    0.6780661 
H    -0.1109957    1.5286519    1.1735498 
H    -1.4090955    0.4862785    0.5443771 
O     0.1935281   -0.5156692    1.4258027 
H    -0.3915336   -0.6679230    2.1760410 
10
Energy = -229.0281930843
H     0.4098770   -0.6815861   -2.1689362 
O    -0.1966823   -0.5050977   -1.4414624 
C     0.3363018    0.5639793   -0.6729217 
H     0.1506342    1.5271177   -1.1636949 
H     1.4150304    0.4513325   -0.5223714 
C    -0.3363014    0.5639795    0.6729219 
H    -0.1506329    1.5271177    1.1636951 
H    -1.4150301    0.4513337    0.5223717 
O     0.1966819   -0.5050981    1.4414623 
H    -0.4098740   -0.6815814    2.1689401 
10
Energy = -229.0280939254
H     0.4212156   -0.6871721   -2.1690847 
O    -0.1990416   -0.4944120   -1.4574353 
C     0.3469059    0.5534331   -0.6677454 
H     0.1900502    1.5244927   -1.1526932 
H     1.4200821    0.4156328   -0.5010504 
C    -0.3469055    0.5534333    0.6677455 
H    -0.1900489    1.5244928    1.1526934 
H    -1.4200819    0.4156339    0.5010506 
O     0.1990412   -0.4944125    1.4574351 
H    -0.4212130   -0.6871675    2.1690885 
10
Energy = -229.0279081505
H     0.4270370   -0.6845819   -2.1763625 
O    -0.2007846   -0.4836153   -1.4735891 
C     0.3573017    0.5422252   -0.6625839 
H     0.2292419    1.5208072   -1.1405604 
H     1.4242017    0.3790754   -0.4805384 
C    -0.3573013    0.5422253    0.6625840 
H    -0.2292399    1.5208067    1.1405612 
H    -1.4242017    0.3790773    0.4805383 
O     0.2007834   -0.4836170    1.4735878 
H    -0.4270324   -0.6845735    2.1763693 
10
Energy = -229.0276472333
H     0.4293035   -0.6754092   -2.1890296 
O    -0.2020800   -0.4726704   -1.4898449 
C     0.3674175    0.5304076   -0.6574916 
H     0.2682188    1.5160826   -1.1273982 
H     1.4273231    0.3416202   -0.4609855 
C    -0.3674170    0.5304080    0.6574918 
H    -0.2682171    1.5160829    1.1273984 
H    -1.4273228    0.3416219    0.4609858 
O     0.2020795   -0.4726709    1.4898446 
H    -0.4293007   -0.6754032    2.1890343 
10
Energy = -229.0273247830
H     0.4295148   -0.6614443   -2.2051663 
O    -0.2030655   -0.4614983   -1.5061162 
C     0.3772026    0.5180725   -0.6525059 
H     0.3070008    1.5103612   -1.1133063 
H     1.4293894    0.3032994   -0.4425097 
C    -0.3772022    0.5180730    0.6525061 
H    -0.3069995    1.5103616    1.1133064 
H    -1.4293892    0.3033006    0.4425101 
O     0.2030653   -0.4614984    1.5061162 
H    -0.4295132   -0.6614405    2.2051690 
10
Energy = -229.0269549538
H     0.4283752   -0.6434987   -2.2237458 
O    -0.2037868   -0.4501151   -1.5223278 
C     0.3866569    0.5052370   -0.6476304 
H     0.3455965    1.5036135   -1.0983259 
H     1.4304040    0.2641106   -0.4251342 
C    -0.3866568    0.5052370    0.6476304 
H    -0.3455962    1.5036135    1.0983260 
H    -1.4304040    0.2641109    0.4251342 
O     0.2037866   -0.4501152    1.5223277 
H    -0.4283747   -0.6434975    2.2237465 
10
Energy = -229.0265539941
H     0.4264650   -0.6225666   -2.2436906 
O    -0.2043228   -0.4384653   -1.5383992 
C     0.3957570    0.4919678   -0.6428804 
H     0.3840359    1.4958570   -1.0825178 
H     1.4303266    0.2240925   -0.4089297 
C    -0.3957570    0.4919679    0.6428804 
H    -0.3840358    1.4958570    1.0825178 
H    -1.4303266    0.2240926    0.4089298 
O     0.2043228   -0.4384652    1.5383992 
H    -0.4264648   -0.6225661    2.2436908 
10
Energy = -229.0261383811
H     0.4240535   -0.5990708   -2.2644240 
O    -0.2046874   -0.4265541   -1.5542515 
C     0.4045122    0.4782822   -0.6382418 
H     0.4223026    1.4870660   -1.0658734 
H     1.4291630    0.1832830   -0.3938936 
C    -0.4045121    0.4782822    0.6382419 
H    -0.4223024    1.4870661    1.0658734 
H    -1.4291630    0.1832831    0.3938936 
O     0.2046874   -0.4265541    1.5542515 
H    -0.4240534   -0.5990705    2.2644242 
10
Energy = -229.0257242552
H     0.4213095   -0.5733691   -2.2854854 
O    -0.2049120   -0.4143736   -1.5698205 
C     0.4129197    0.4642089   -0.6337084 
H     0.4603825    1.4772292   -1.0484078 
H     1.4269094    0.1417496   -0.3800466 
C    -0.4129197    0.4642089    0.6337085 
H    -0.4603825    1.4772292    1.0484078 
H    -1.4269094    0.1417497    0.3800466 
O     0.2049120   -0.4143736    1.5698205 
H    -0.4213094   -0.5733688    2.2854855 
10
Energy = -229.0253276659
H     0.4183333   -0.5456749   -2.3065475 
O    -0.2050062   -0.4019287   -1.5850467 
C     0.4209840    0.4497628   -0.6292656 
H     0.4982260    1.4663209   -1.0301221 
H     1.4235736    0.0995629   -0.3673917 
C    -0.4209840    0.4497628    0.6292656 
H    -0.4982259    1.4663209    1.0301221 
H    -1.4235736    0.0995630    0.3673917 
O     0.2050062   -0.4019287    1.5850467 
H    -0.4183333   -0.5456749    2.3065475 
10
Energy = -229.0249638099
H     0.4152573   -0.5163338   -2.3272425 
O    -0.2049803   -0.3892191   -1.5998694 
C     0.4287056    0.4349628   -0.6248947 
H     0.5357556    1.4543267   -1.0110112 
H     1.4191709    0.0568297   -0.3559220 
C    -0.4287055    0.4349629    0.6248947 
H    -0.5357552    1.4543269    1.0110112 
H    -1.4191709    0.0568301    0.3559221 
O     0.2049802   -0.3892192    1.5998694 
H    -0.4152572   -0.5163334    2.3272426 
10
Energy = -229.0246462998
H     0.4121432   -0.4855446   -2.3473358 
O    -0.2048424   -0.3762486   -1.6142403 
C     0.4360853    0.4198259   -0.6205805 
H     0.5728858    1.4412360   -0.9910854 
H     1.4137270    0.0136628   -0.3456424 
C    -0.4360852    0.4198260    0.6205805 
H    -0.5728854    1.4412362    0.9910854 
H    -1.4137270    0.0136632    0.3456424 
O     0.2048423   -0.3762487    1.6142403 
H    -0.4121432   -0.4855442    2.3473359 
10
Energy = -229.0243871857
H     0.4090432   -0.4534797   -2.3666395 
O    -0.2045939   -0.3630256   -1.6281224 
C     0.4431212    0.4043621   -0.6163088 
H     0.6094919    1.4270390   -0.9703620 
H     1.4072854   -0.0297975   -0.3365454 
C    -0.4431211    0.4043622    0.6163088 
H    -0.6094916    1.4270392    0.9703620 
H    -1.4072854   -0.0297972    0.3365454 
O     0.2045938   -0.3630257    1.6281224 
H    -0.4090431   -0.4534791    2.3666397 
10
Energy = -229.0241960711
H     0.4060714   -0.4205308   -2.3848967 
O    -0.2042388   -0.3495756   -1.6414650 
C     0.4498248    0.3885658   -0.6120596 
H     0.6454852    1.4117125   -0.9488766 
H     1.3999002   -0.0734478   -0.3286050 
C    -0.4498170    0.3885749    0.6120600 
H    -0.6454577    1.4117257    0.9488761 
H    -1.3999011   -0.0734207    0.3286057 
O     0.2042325   -0.3495779    1.6414660 
H    -0.4060784   -0.4205195    2.3848984 
10
Energy = -229.0240802202
H     0.4031619   -0.3866179   -2.4020779 
O    -0.2037979   -0.3358639   -1.6542394 
C     0.4561979    0.3724792   -0.6078313 
H     0.6807500    1.3952952   -0.9266798 
H     1.3916390   -0.1171226   -0.3218295 
C    -0.4561561    0.3725319    0.6078324 
H    -0.6806005    1.3953750    0.9266710 
H    -1.3916482   -0.1169742    0.3218357 
O     0.2037680   -0.3358662    1.6542482 
H    -0.4032238   -0.3866146    2.4020613 
10
Energy = -229.0240440005
H     0.4005745   -0.3523205   -2.4178994 
O    -0.2032551   -0.3219071   -1.6664286 
C     0.4621895    0.3561761   -0.6036221 
H     0.7149825    1.3779034   -0.9038296 
H     1.3825898   -0.1605116   -0.3162282 
C    -0.4621887    0.3561772    0.6036220 
H    -0.7149790    1.3779051    0.9038297 
H    -1.3825903   -0.1605081    0.3162281 
O     0.2032542   -0.3219078    1.6664285 
H    -0.4005759   -0.3523209    2.4178988 
10
Energy = -229.0240892249
H     0.3982816   -0.3178224   -2.4323267 
O    -0.2026413   -0.3077387   -1.6779997 
C     0.4678658    0.3395707   -0.5994238 
H     0.7482671    1.3594359   -0.8804066 
H     1.3728345   -0.2037101   -0.3117733 
C    -0.4678650    0.3395718    0.5994237 
H    -0.7482639    1.3594376    0.8804065 
H    -1.3728350   -0.2037068    0.3117731 
O     0.2026405   -0.3077393    1.6779996 
H    -0.3982831   -0.3178233    2.4323259 
10
Energy = -229.0242147970
H     0.3963141   -0.2832081   -2.4453315 
O    -0.2019645   -0.2933333   -1.6889402 
C     0.4732069    0.3227367   -0.5952490 
H     0.7804270    1.3400099   -0.8564982 
H     1.3624738   -0.2464880   -0.3084754 
C    -0.4732057    0.3227386    0.5952488 
H    -0.7804210    1.3400131    0.8564983 
H    -1.3624752   -0.2464817    0.3084749 
O     0.2019630   -0.2933346    1.6889398 
H    -0.3963179   -0.2832124    2.4453293 
10
Energy = -229.0244169039
H     0.3948531   -0.2490565   -2.4567906 
O    -0.2012366   -0.2787292   -1.6992374 
C     0.4782188    0.3056622   -0.5911072 
H     0.8113630    1.3196565   -0.8321911 
H     1.3516166   -0.2887563   -0.3063219 
C    -0.4782179    0.3056636    0.5911070 
H    -0.8113586    1.3196590    0.8321911 
H    -1.3516178   -0.2887518    0.3063216 
O     0.2012356   -0.2787300    1.6992372 
H    -0.3948566   -0.2490617    2.4567886 
10
Energy = -229.0246897145
H     0.3939468   -0.2155713   -2.4667183 
O    -0.2004792   -0.2639111   -1.7088841 
C     0.4829032    0.2883816   -0.5870185 
H     0.8409880    1.2984599   -0.8075947 
H     1.3403672   -0.3303958   -0.3053350 
C    -0.4829026    0.2883826    0.5870183 
H    -0.8409851    1.2984617    0.8075945 
H    -1.3403679   -0.3303929    0.3053348 
O     0.2004785   -0.2639115    1.7088840 
H    -0.3939498   -0.2155763    2.4667167 
10
Energy = -229.0250249796
H     0.3936239   -0.1829614   -2.4751567 
O    -0.1997163   -0.2488847   -1.7178748 
C     0.4872647    0.2709112   -0.5830062 
H     0.8692498    1.2764874   -0.7828058 
H     1.3288261   -0.3713276   -0.3055231 
C    -0.4872641    0.2709121    0.5830061 
H    -0.8692472    1.2764891    0.7828058 
H    -1.3288269   -0.3713249    0.3055229 
O     0.1997157   -0.2488851    1.7178747 
H    -0.3936271   -0.1829674    2.4751551 
10
Energy = -229.0254124459
H     0.3939594   -0.1514933   -2.4821540 
O    -0.1989612   -0.2336558   -1.7262182 
C     0.4913096    0.2532683   -0.5790951 
H     0.8960939    1.2538149   -0.7579303 
H     1.3170981   -0.4114790   -0.3069006 
C    -0.4913094    0.2532687    0.5790951 
H    -0.8960930    1.2538155    0.7579303 
H    -1.3170984   -0.4114780    0.3069004 
O     0.1989610   -0.2336560    1.7262181 
H    -0.3939608   -0.1514960    2.4821533 
10
Energy = -229.0258411794
H     0.3950554   -0.1216392   -2.4877548 
O    -0.1982408   -0.2182291   -1.7339143 
C     0.4950419    0.2354683   -0.5753173 
H     0.9215027    1.2305123   -0.7330730 
H     1.3052718   -0.4508014   -0.3094760 
C    -0.4950419    0.2354683    0.5753172 
H    -0.9215028    1.2305123    0.7330729 
H    -1.3052718   -0.4508014    0.3094759 
O     0.1982408   -0.2182291    1.7339142 
H    -0.3950555   -0.1216393    2.4877547 
10
Energy = -229.0262988737
H     0.3969181   -0.0936017   -2.4920789 
O    -0.1975740   -0.2026058   -1.7409743 
C     0.4984664    0.2175319   -0.5717027 
H     0.9454854    1.2066467   -0.7083344 
H     1.2934184   -0.4892643   -0.3132617 
C    -0.4984664    0.2175319    0.5717026 
H    -0.9454855    1.2066466    0.7083343 
H    -1.2934184   -0.4892644    0.3132617 
O     0.1975741   -0.2026057    1.7409742 
H    -0.3969181   -0.0936017    2.4920788 
10
Energy = -229.0267729929
H     0.3995592   -0.0676458   -2.4952460 
O    -0.1969788   -0.1867859   -1.7474064 
C     0.5015873    0.1994805   -0.5682820 
H     0.9680542    1.1822868   -0.6838074 
H     1.2816011   -0.5268428   -0.3182696 
C    -0.5015873    0.1994804    0.5682819 
H    -0.9680544    1.1822866    0.6838073 
H    -1.2816010   -0.5268431    0.3182695 
O     0.1969788   -0.1867858    1.7474064 
H    -0.3995592   -0.0676456    2.4952460 
10
Energy = -229.0272510215
H     0.4029931   -0.0441196   -2.4973887 
O    -0.1964707   -0.1707709   -1.7532264 
C     0.5044077    0.1813344   -0.5650880 
H     0.9892663    1.1574803   -0.6595884 
H     1.2698512   -0.5635407   -0.3245052 
C    -0.5044077    0.1813343    0.5650879 
H    -0.9892665    1.1574801    0.6595883 
H    -1.2698511   -0.5635410    0.3245052 
O     0.1964708   -0.1707709    1.7532264 
H    -0.4029931   -0.0441195    2.4973887 
10
Energy = -229.0277208469
H     0.4071599   -0.0232357   -2.4986580 
O    -0.1960619   -0.1545598   -1.7584431 
C     0.5069299    0.1631171   -0.5621467 
H     1.0091906    1.1322679   -0.6357605 
H     1.2581745   -0.5993715   -0.3319556 
C    -0.5069298    0.1631171    0.5621466 
H    -1.0091905    1.1322679    0.6357604 
H    -1.2581744   -0.5993715    0.3319556 
O     0.1960618   -0.1545598    1.7584431 
H    -0.4071601   -0.0232362    2.4986579 
10
Energy = -229.0281710547
H     0.4120438   -0.0054519   -2.4991993 
O    -0.1957621   -0.1381541   -1.7630738 
C     0.5091579    0.1448516   -0.5594856 
H     1.0279086    1.1066822   -0.6124084 
H     1.2465645   -0.6343590   -0.3406249 
C    -0.5091578    0.1448517    0.5594855 
H    -1.0279085    1.1066823    0.6124082 
H    -1.2465645   -0.6343589    0.3406248 
O     0.1957620   -0.1381541    1.7630738 
H    -0.4120443   -0.0054528    2.4991992 
10
Energy = -229.0285916289
H     0.4175076    0.0089752   -2.4991810 
O    -0.1955770   -0.1215479   -1.7671286 
C     0.5110929    0.1265676   -0.5571274 
H     1.0455361    1.0807402   -0.5896057 
H     1.2349890   -0.6685286   -0.3504953 
C    -0.5110929    0.1265674    0.5571273 
H    -1.0455367    1.0807396    0.5896053 
H    -1.2349883   -0.6685293    0.3504950 
O     0.1955768   -0.1215480    1.7671286 
H    -0.4175081    0.0089743    2.4991807 
10
Energy = -229.0289735577
H     0.4234091    0.0196429   -2.4987661 
O    -0.1955034   -0.1047385   -1.7706212 
C     0.5127401    0.1082930   -0.5550900 
H     1.0622016    1.0544441   -0.5674276 
H     1.2233856   -0.7019232   -0.3615351 
C    -0.5127399    0.1082933    0.5550899 
H    -1.0622008    1.0544448    0.5674274 
H    -1.2233859   -0.7019223    0.3615346 
O     0.1955031   -0.1047390    1.7706212 
H    -0.4234113    0.0196355    2.4987656 
10
Energy = -229.0293094043
H     0.4295182    0.0262473   -2.4981047 
O    -0.1955294   -0.0877261   -1.7735570 
C     0.5141045    0.0900554   -0.5533803 
H     1.0780390    1.0277852   -0.5459194 
H     1.2116802   -0.7345841   -0.3737037 
C    -0.5141043    0.0900557    0.5533802 
H    -1.0780384    1.0277858    0.5459191 
H    -1.2116804   -0.7345834    0.3737034 
O     0.1955292   -0.0877262    1.7735570 
H    -0.4295194    0.0262431    2.4981045 
10
Energy = -229.0295928375
H     0.4355064    0.0285857   -2.4973564 
O    -0.1956346   -0.0705106   -1.7759480 
C     0.5151950    0.0718814   -0.5520040 
H     1.0931946    1.0007427   -0.5251355 
H     1.1997964   -0.7665494   -0.3869534 
C    -0.5151948    0.0718818    0.5520039 
H    -1.0931939    1.0007435    0.5251352 
H    -1.1997967   -0.7665486    0.3869530 
O     0.1956344   -0.0705107    1.7759480 
H    -0.4355079    0.0285797    2.4973561 
10
Energy = -229.0298190920
H     0.4409971    0.0264028   -2.4966395 
O    -0.1957891   -0.0530997   -1.7777966 
C     0.5160217    0.0537900   -0.5509557 
H     1.1078014    0.9732865   -0.5050966 
H     1.1876545   -0.7978569   -0.4012293 
C    -0.5160216    0.0537910    0.5509555 
H    -1.1077987    0.9732892    0.5050971 
H    -1.1876567   -0.7978539    0.4012274 
O     0.1957887   -0.0531017    1.7777965 
H    -0.4410000    0.0263824    2.4966394 
10
Energy = -229.0299839371
H     0.4454479    0.0203973   -2.4960616 
O    -0.1959476   -0.0355130   -1.7791122 
C     0.5165967    0.0357926   -0.5502235 
H     1.1219649    0.9453860   -0.4858164 
H     1.1752007   -0.8285266   -0.4164643 
C    -0.5165964    0.0357943    0.5502234 
H    -1.1219616    0.9453897    0.4858164 
H    -1.1752033   -0.8285227    0.4164634 
O     0.1959474   -0.0355138    1.7791122 
H    -0.4454507    0.0203717    2.4960612 
10
Energy = -229.0300842480
H     0.4483918    0.0110995   -2.4956896 
O    -0.1960669   -0.0177922   -1.7798977 
C     0.5169355    0.0178727   -0.5497916 
H     1.1357735    0.9169927   -0.4672970 
H     1.1623969   -0.8585945   -0.4325874 
C    -0.5169354    0.0178750    0.5497915 
H    -1.1357685    0.9169986    0.4672981 
H    -1.1624016   -0.8585885    0.4325861 
O     0.1960667   -0.0177946    1.7798976 
H    -0.4483938    0.0110582    2.4956895 
10
Energy = -229.0301178218
H     0.4494233    0.0000579   -2.4955657 
O    -0.1961119    0.0000004   -1.7801620 
C     0.5170469   -0.0000015   -0.5496504 
H     1.1492505    0.8880721   -0.4495479 
H     1.1492490   -0.8880767   -0.4495497 
C    -0.5170467    0.0000009    0.5496504 
H    -1.1492466    0.8880773    0.4495483 
H    -1.1492524   -0.8880716    0.4495487 
O     0.1961117   -0.0000011    1.7801622 
H    -0.4494236    0.0000163    2.4955656 
