10
Energy = -230.2267905402
H     0.4263176    0.0116973   -2.5147252 
O    -0.1956819   -0.0699144   -1.7853634 
C     0.5135785    0.0723297   -0.5577030 
H     1.0936504    1.0018923   -0.5335589 
H     1.2022634   -0.7655038   -0.3963856 
C    -0.5135784    0.0723299    0.5577030 
H    -1.0936499    1.0018927    0.5335588 
H    -1.2022637   -0.7655033    0.3963853 
O     0.1956818   -0.0699146    1.7853634 
H    -0.4263184    0.0116938    2.5147250 
