10
Energy = -230.2207621592
H     0.1045425   -0.5654952   -2.2540850 
O    -0.1233194   -0.6005759   -1.3196748 
C     0.1943060    0.6526537   -0.7358864 
H    -0.3288085    1.4845521   -1.2254535 
H     1.2740364    0.8366571   -0.8215287 
C    -0.1943060    0.6526537    0.7358864 
H     0.3288083    1.4845523    1.2254535 
H    -1.2740364    0.8366569    0.8215285 
O     0.1233196   -0.6005758    1.3196749 
H    -0.1045454   -0.5654962    2.2540843 
