10
Energy =
H     0.1167961   -0.6359652   -2.1888921 
O    -0.1321465   -0.6097124   -1.2600427 
C     0.2033762    0.6693238   -0.7298696 
H    -0.3284629    1.4727280   -1.2529410 
H     1.2794144    0.8652989   -0.8050499 
C    -0.2033772    0.6693258    0.7298670 
H     0.3284469    1.4727404    1.2529401 
H    -1.2794176    0.8652863    0.8050362 
O     0.1321631   -0.6097019    1.2600495 
H    -0.1170285   -0.6360446    2.1888294 
