10
Energy = -229.0261383811
H     0.4240535   -0.5990708   -2.2644240 
O    -0.2046874   -0.4265541   -1.5542515 
C     0.4045122    0.4782822   -0.6382418 
H     0.4223026    1.4870660   -1.0658734 
H     1.4291630    0.1832830   -0.3938936 
C    -0.4045121    0.4782822    0.6382419 
H    -0.4223024    1.4870661    1.0658734 
H    -1.4291630    0.1832831    0.3938936 
O     0.2046874   -0.4265541    1.5542515 
H    -0.4240534   -0.5990705    2.2644242 
