10
Energy = -229.0280939254
H     0.4212156   -0.6871721   -2.1690847 
O    -0.1990416   -0.4944120   -1.4574353 
C     0.3469059    0.5534331   -0.6677454 
H     0.1900502    1.5244927   -1.1526932 
H     1.4200821    0.4156328   -0.5010504 
C    -0.3469055    0.5534333    0.6677455 
H    -0.1900489    1.5244928    1.1526934 
H    -1.4200819    0.4156339    0.5010506 
O     0.1990412   -0.4944125    1.4574351 
H    -0.4212130   -0.6871675    2.1690885 
