10
Energy =
H     0.2904694   -0.4785724   -2.3365607 
O    -0.1986192   -0.4588067   -1.5084154 
C     0.3985832    0.5036631   -0.6443588 
H     0.3742026    1.5076480   -1.0840574 
H     1.4424448    0.2517521   -0.4234289 
C    -0.3985941    0.5036564    0.6443567 
H    -0.3742523    1.5076453    1.0840509 
H    -1.4424440    0.2517074    0.4234202 
O     0.1986396   -0.4587845    1.5084239 
H    -0.2906145   -0.4787513    2.3364663 
