10
Energy =
H     0.4298359   -0.1227320   -2.5019655 
O    -0.1969100   -0.1182696   -1.7721832 
C     0.5099163    0.1297647   -0.5604038 
H     1.0200092    1.0998893   -0.5845990 
H     1.2594237   -0.6465641   -0.3668356 
C    -0.5099012    0.1298152    0.5604019 
H    -1.0199146    1.0999730    0.5845903 
H    -1.2594724   -0.6464619    0.3668287 
O     0.1969022   -0.1182364    1.7721903 
H    -0.4299384   -0.1232698    2.5018896 
