10
Energy = -229.0285916289
H     0.4175076    0.0089752   -2.4991810 
O    -0.1955770   -0.1215479   -1.7671286 
C     0.5110929    0.1265676   -0.5571274 
H     1.0455361    1.0807402   -0.5896057 
H     1.2349890   -0.6685286   -0.3504953 
C    -0.5110929    0.1265674    0.5571273 
H    -1.0455367    1.0807396    0.5896053 
H    -1.2349883   -0.6685293    0.3504950 
O     0.1955768   -0.1215480    1.7671286 
H    -0.4175081    0.0089743    2.4991807 
