10
Energy = -230.2161160722
H     0.0242621   -0.5729705   -2.2462484 
O    -0.0764712   -0.6238482   -1.2903125 
C     0.1195837    0.6765193   -0.7588234 
H    -0.5542228    1.4128512   -1.2142067 
H     1.1494223    1.0008369   -0.9600703 
C    -0.1195837    0.6765193    0.7588234 
H     0.5542228    1.4128512    1.2142067 
H    -1.1494223    1.0008369    0.9600703 
O     0.0764712   -0.6238482    1.2903125 
H    -0.0242615   -0.5729704    2.2462484 
