10
Energy = -229.0246462998
H     0.4121432   -0.4855446   -2.3473358 
O    -0.2048424   -0.3762486   -1.6142403 
C     0.4360853    0.4198259   -0.6205805 
H     0.5728858    1.4412360   -0.9910854 
H     1.4137270    0.0136628   -0.3456424 
C    -0.4360852    0.4198260    0.6205805 
H    -0.5728854    1.4412362    0.9910854 
H    -1.4137270    0.0136632    0.3456424 
O     0.2048423   -0.3762487    1.6142403 
H    -0.4121432   -0.4855442    2.3473359 
