10
Energy = -230.2255218874
H     0.3121660   -0.6232196   -2.2250044 
O    -0.1775632   -0.5439798   -1.4006816 
C     0.2892240    0.5988982   -0.6977785 
H    -0.0164503    1.5295460   -1.1954794 
H     1.3843370    0.5917760   -0.6268083 
C    -0.2892240    0.5988982    0.6977785 
H     0.0164504    1.5295460    1.1954794 
H    -1.3843370    0.5917760    0.6268083 
O     0.1775632   -0.5439798    1.4006816 
H    -0.3121659   -0.6232194    2.2250045 
