10
Energy =
H     0.1970766   -0.5770590   -2.2510175 
O    -0.1766762   -0.5532314   -1.3649227 
C     0.3049964    0.6073193   -0.6935761 
H     0.0114732    1.5247267   -1.2171434 
H     1.3978896    0.5967313   -0.6076190 
C    -0.3049997    0.6073200    0.6935735 
H    -0.0114974    1.5247363    1.2171392 
H    -1.3978909    0.5967116    0.6076068 
O     0.1766928   -0.5532160    1.3649311 
H    -0.1972748   -0.5771847    2.2509313 
