10
Energy = -229.0184618989
H     0.0359158   -0.5638988   -2.2295493 
O    -0.0872054   -0.6222015   -1.2748915 
C     0.1351319    0.6751976   -0.7514247 
H    -0.5074838    1.4283810   -1.2205992 
H     1.1774992    0.9658748   -0.9292960 
C    -0.1351318    0.6751976    0.7514246 
H     0.5074838    1.4283811    1.2205992 
H    -1.1774992    0.9658748    0.9292959 
O     0.0872055   -0.6222015    1.2748915 
H    -0.0359165   -0.5638989    2.2295492 
