10
Energy =
H     0.0749621   -0.6579154   -2.1630685 
O    -0.0951755   -0.6309199   -1.2166347 
C     0.1396092    0.6925921   -0.7446965 
H    -0.5206360    1.4169499   -1.2359233 
H     1.1769249    1.0023162   -0.9177958 
C    -0.1396089    0.6925965    0.7446895 
H     0.5206190    1.4169592    1.2359151 
H    -1.1769375    1.0023152    0.9177718 
O     0.0952138   -0.6309008    1.2166483 
H    -0.0755430   -0.6580335    2.1629683 
