10
Energy =
H     0.2707663   -0.5029611   -2.3172683 
O    -0.1959382   -0.4821887   -1.4763294 
C     0.3804467    0.5293307   -0.6552316 
H     0.2986665    1.5187487   -1.1202896 
H     1.4402783    0.3303053   -0.4575901 
C    -0.3804549    0.5293269    0.6552294 
H    -0.2987069    1.5187506    1.1202835 
H    -1.4402781    0.3302697    0.4575806 
O     0.1959569   -0.4821684    1.4763380 
H    -0.2709245   -0.5031280    2.3171738 
