10
Energy = -230.2251398214
H     0.2807434   -0.6068209   -2.2352226 
O    -0.1716172   -0.5530157   -1.3877430 
C     0.2777920    0.6070032   -0.7027778 
H    -0.0565432    1.5269728   -1.2018343 
H     1.3741154    0.6247434   -0.6507383 
C    -0.2777920    0.6070032    0.7027778 
H     0.0565431    1.5269729    1.2018343 
H    -1.3741154    0.6247433    0.6507382 
O     0.1716172   -0.5530157    1.3877430 
H    -0.2807439   -0.6068213    2.2352223 
