10
Energy =
H     0.0235829   -0.6746225   -2.1425211 
O    -0.0333319   -0.6468397   -1.1826246 
C     0.0470927    0.7100799   -0.7562037 
H    -0.7724929    1.3098457   -1.1690987 
H     0.9948027    1.1704935   -1.0591584 
C    -0.0470912    0.7100817    0.7561992 
H     0.7724798    1.3098507    1.1690980 
H    -0.9948153    1.1704947    1.0591393 
O     0.0333705   -0.6468316    1.1826312 
H    -0.0241875   -0.6746545    2.1424898 
