10
Energy =
H     0.2292352   -0.5475388   -2.2788650 
O    -0.1870810   -0.5249278   -1.4119207 
C     0.3395723    0.5762483   -0.6773186 
H     0.1384811    1.5284446   -1.1820952 
H     1.4231479    0.4844867   -0.5381782 
C    -0.3395772    0.5762477    0.6773161 
H    -0.1385104    1.5284518    1.1820900 
H    -1.4231485    0.4844620    0.5381671 
O     0.1870981   -0.5249105    1.4119293 
H    -0.2294173   -0.5476822    2.2787736 
