10
Energy =
H     0.1858235   -0.5857786   -2.2422155 
O    -0.1723509   -0.5619318   -1.3497162 
C     0.2927822    0.6168432   -0.6988135 
H    -0.0318409    1.5213851   -1.2263981 
H     1.3869451    0.6333106   -0.6320838 
C    -0.2927891    0.6168451    0.6988058 
H     0.0318047    1.5213929    1.2263823 
H    -1.3869592    0.6332870    0.6320594 
O     0.1723895   -0.5618956    1.3497368 
H    -0.1863048   -0.5860555    2.2420206 
