10
Energy = -229.0272000331
H     0.2712430   -0.5936405   -2.2227948 
O    -0.1731732   -0.5548059   -1.3684498 
C     0.2811896    0.6088106   -0.6982720 
H    -0.0489483    1.5244494   -1.2042482 
H     1.3757064    0.6208911   -0.6381245 
C    -0.2811898    0.6088107    0.6982718 
H     0.0489469    1.5244501    1.2042478 
H    -1.3757066    0.6208899    0.6381239 
O     0.1731741   -0.5548049    1.3684503 
H    -0.2712528   -0.5936472    2.2227894 
