10
Energy =
H     0.4337726   -0.0883865   -2.5075125 
O    -0.1964454   -0.0846953   -1.7807150 
C     0.5126384    0.0929645   -0.5579191 
H     1.0597993    1.0429003   -0.5455930 
H     1.2306261   -0.7180870   -0.3887874 
C    -0.5126348    0.0929834    0.5579187 
H    -1.0597778    1.0429307    0.5455873 
H    -1.2306367   -0.7180543    0.3887884 
O     0.1964438   -0.0846798    1.7807171 
H    -0.4338017   -0.0886196    2.5074891 
