10
Energy = -230.2265989478
H     0.4210192    0.0082523   -2.5152557 
O    -0.1956267   -0.0870916   -1.7829799 
C     0.5124856    0.0905089   -0.5590750 
H     1.0780225    1.0291810   -0.5542635 
H     1.2144419   -0.7332754   -0.3832961 
C    -0.5124855    0.0905090    0.5590749 
H    -1.0780220    1.0291814    0.5542634 
H    -1.2144421   -0.7332749    0.3832959 
O     0.1956266   -0.0870917    1.7829799 
H    -0.4210199    0.0082496    2.5152555 
