10
Energy =
H     0.3586754   -0.3685447   -2.4099152 
O    -0.2016948   -0.3534373   -1.6281353 
C     0.4561663    0.3880438   -0.6048967 
H     0.6432133    1.4225348   -0.9159542 
H     1.4160072   -0.0668846   -0.3334892 
C    -0.4563481    0.3878315    0.6048952 
H    -0.6438969    1.4222345    0.9159470 
H    -1.4159662   -0.0675616    0.3334839 
O     0.2018679   -0.3533227    1.6281424 
H    -0.3586154   -0.3689202    2.4098314 
