10
Energy = -230.2229882423
H     0.3955000   -0.4241751   -2.4025926 
O    -0.2031711   -0.3493090   -1.6521546 
C     0.4480271    0.3880363   -0.6167274 
H     0.6400599    1.4143742   -0.9511089 
H     1.4031572   -0.0698057   -0.3396704 
C    -0.4480261    0.3880374    0.6167274 
H    -0.6400565    1.4143757    0.9511089 
H    -1.4031574   -0.0698023    0.3396705 
O     0.2031703   -0.3493094    1.6521546 
H    -0.3955008   -0.4241737    2.4025928 
