10
Energy =
H     0.3905716   -0.2908267   -2.4492606 
O    -0.2005039   -0.2793453   -1.6903730 
C     0.4812784    0.3065798   -0.5852040 
H     0.7861486    1.3370648   -0.8021753 
H     1.3766704   -0.2661523   -0.3165638 
C    -0.4812112    0.3066844    0.5852006 
H    -0.7858781    1.3372233    0.8021627 
H    -1.3767191   -0.2658772    0.3165512 
O     0.2004566   -0.2793384    1.6903875 
H    -0.3908430   -0.2912701    2.4490956 
