10
Energy = -230.2268953456
H     0.4295020    0.0123074   -2.5143665 
O    -0.1957367   -0.0583776   -1.7866562 
C     0.5141635    0.0602333   -0.5569634 
H     1.1037213    0.9834625   -0.5201549 
H     1.1940273   -0.7866170   -0.4056716 
C    -0.5141634    0.0602336    0.5569633 
H    -1.1037206    0.9834631    0.5201547 
H    -1.1940277   -0.7866162    0.4056714 
O     0.1957366   -0.0583776    1.7866561 
H    -0.4295029    0.0123019    2.5143663 
