10
Energy = -229.0230985080
H     0.1103178   -0.5576277   -2.2372818 
O    -0.1301874   -0.5986828   -1.3045307 
C     0.2057489    0.6511640   -0.7286886 
H    -0.2946363    1.4893789   -1.2276780 
H     1.2888477    0.8116619   -0.7946398 
C    -0.2057485    0.6511643    0.7286884 
H     0.2946354    1.4893803    1.2276774 
H    -1.2888475    0.8116607    0.7946392 
O     0.1301895   -0.5986816    1.3045315 
H    -0.1103334   -0.5576328    2.2372783 
