10
Energy = -230.2260459680
H     0.3706131   -0.6625231   -2.1994280 
O    -0.1877510   -0.5245245   -1.4283677 
C     0.3114805    0.5817297   -0.6877592 
H     0.0634616    1.5317899   -1.1807316 
H     1.4015433    0.5246650   -0.5805461 
C    -0.3114804    0.5817297    0.6877593 
H    -0.0634612    1.5317899    1.1807317 
H    -1.4015432    0.5246654    0.5805462 
O     0.1877509   -0.5245245    1.4283677 
H    -0.3706116   -0.6625213    2.1994295 
