10
Energy =
H     0.1439277   -0.6182727   -2.2085432 
O    -0.1507216   -0.5927478   -1.2931454 
C     0.2406281    0.6507000   -0.7184493 
H    -0.2089693    1.4976787   -1.2498666 
H     1.3297234    0.7753001   -0.7346579 
C    -0.2406297    0.6507018    0.7184466 
H     0.2089509    1.4976906    1.2498644 
H    -1.3297259    0.7752857    0.7346445 
O     0.1507381   -0.5927355    1.2931530 
H    -0.1441496   -0.6183683    2.2084708 
