10
Energy = -229.0272510215
H     0.4029931   -0.0441196   -2.4973887 
O    -0.1964707   -0.1707709   -1.7532264 
C     0.5044077    0.1813344   -0.5650880 
H     0.9892663    1.1574803   -0.6595884 
H     1.2698512   -0.5635407   -0.3245052 
C    -0.5044077    0.1813343    0.5650879 
H    -0.9892665    1.1574801    0.6595883 
H    -1.2698511   -0.5635410    0.3245052 
O     0.1964708   -0.1707709    1.7532264 
H    -0.4029931   -0.0441195    2.4973887 
