10
Energy =
H     0.4215642   -0.1745736   -2.4903467 
O    -0.1978340   -0.1679580   -1.7543341 
C     0.5040281    0.1843108   -0.5657089 
H     0.9561840    1.1797660   -0.6466148 
H     1.2994184   -0.5359137   -0.3408815 
C    -0.5040058    0.1843670    0.5657066 
H    -0.9560685    1.1798566    0.6466049 
H    -1.2994646   -0.5357919    0.3408729 
O     0.1978220   -0.1679278    1.7543436 
H    -0.4217089   -0.1750956    2.4902414 
