10
Energy = -230.2262085725
H     0.4192489   -0.6977417   -2.1830668 
O    -0.1972173   -0.4932402   -1.4735460 
C     0.3439167    0.5521975   -0.6724146 
H     0.1823905    1.5272685   -1.1516841 
H     1.4203409    0.4198112   -0.5150442 
C    -0.3439164    0.5521977    0.6724148 
H    -0.1823896    1.5272686    1.1516842 
H    -1.4203407    0.4198121    0.5150444 
O     0.1972170   -0.4932404    1.4735460 
H    -0.4192471   -0.6977383    2.1830696 
