10
Energy =
H     0.2502880   -0.5259709   -2.2979703 
O    -0.1921534   -0.5042493   -1.4440401 
C     0.3607727    0.5535480   -0.6662673 
H     0.2200177    1.5256874   -1.1531431 
H     1.4339535    0.4079547   -0.4959677 
C    -0.3607790    0.5535460    0.6662650 
H    -0.2200517    1.5256923    1.1531374 
H    -1.4339537    0.4079253    0.4959573 
O     0.1921710   -0.5042305    1.4440488 
H    -0.2504584   -0.5261260    2.2978768 
