10
Energy = -229.0249638099
H     0.4152573   -0.5163338   -2.3272425 
O    -0.2049803   -0.3892191   -1.5998694 
C     0.4287056    0.4349628   -0.6248947 
H     0.5357556    1.4543267   -1.0110112 
H     1.4191709    0.0568297   -0.3559220 
C    -0.4287055    0.4349629    0.6248947 
H    -0.5357552    1.4543269    1.0110112 
H    -1.4191709    0.0568301    0.3559221 
O     0.2049802   -0.3892192    1.5998694 
H    -0.4152572   -0.5163334    2.3272426 
