10
Energy = -229.0301178218
H     0.4494233    0.0000579   -2.4955657 
O    -0.1961119    0.0000004   -1.7801620 
C     0.5170469   -0.0000015   -0.5496504 
H     1.1492505    0.8880721   -0.4495479 
H     1.1492490   -0.8880767   -0.4495497 
C    -0.5170467    0.0000009    0.5496504 
H    -1.1492466    0.8880773    0.4495483 
H    -1.1492524   -0.8880716    0.4495487 
O     0.1961117   -0.0000011    1.7801622 
H    -0.4494236    0.0000163    2.4955656 
