10
Energy = -229.0254807589
H     0.1811967   -0.5654611   -2.2367781 
O    -0.1530023   -0.5790135   -1.3326777 
C     0.2449802    0.6316671   -0.7135452 
H    -0.1704465    1.5114513   -1.2197641 
H     1.3383084    0.7175326   -0.7144207 
C    -0.2449800    0.6316676    0.7135448 
H     0.1704433    1.5114543    1.2197625 
H    -1.3383084    0.7175292    0.7144191 
O     0.1530067   -0.5790101    1.3326798 
H    -0.1812343   -0.5654786    2.2367649 
