10
Energy = -230.2232459230
H     0.3999013   -0.4681518   -2.3781261 
O    -0.2035385   -0.3671495   -1.6346572 
C     0.4388801    0.4089283   -0.6224078 
H     0.5917085    1.4345909   -0.9790855 
H     1.4125305   -0.0116508   -0.3509662 
C    -0.4388801    0.4089283    0.6224078 
H    -0.5917086    1.4345909    0.9790854 
H    -1.4125305   -0.0116509    0.3509662 
O     0.2035385   -0.3671494    1.6346572 
H    -0.3999013   -0.4681519    2.3781261 
