10
Energy = -230.2145928573
H     0.0082982   -0.5778821   -2.2431458 
O    -0.0576730   -0.6294626   -1.2841794 
C     0.0903319    0.6824167   -0.7654390 
H    -0.6390791    1.3759804   -1.2013962 
H     1.0917276    1.0614779   -1.0084695 
C    -0.0903319    0.6824167    0.7654390 
H     0.6390792    1.3759804    1.2013962 
H    -1.0917276    1.0614779    1.0084695 
O     0.0576730   -0.6294626    1.2841794 
H    -0.0082974   -0.5778820    2.2431458 
