10
Energy = -230.2150707785
H     0.0127604   -0.5762400   -2.2441318 
O    -0.0639863   -0.6277743   -1.2859782 
C     0.1001441    0.6806359   -0.7633929 
H    -0.6108553    1.3888861   -1.2062419 
H     1.1116334    1.0413507   -0.9926723 
C    -0.1001441    0.6806359    0.7633929 
H     0.6108553    1.3888861    1.2062419 
H    -1.1116334    1.0413507    0.9926723 
O     0.0639862   -0.6277743    1.2859782 
H    -0.0127598   -0.5762399    2.2441319 
