10
Energy =
H     0.4320073   -0.1059202   -2.5049549 
O    -0.1966597   -0.1015054   -1.7768195 
C     0.5113882    0.1114182   -0.5590656 
H     1.0401235    1.0717935   -0.5648435 
H     1.2452556   -0.6825205   -0.3773615 
C    -0.5113838    0.1114375    0.5590651 
H    -1.0401003    1.0718244    0.5648375 
H    -1.2452656   -0.6824866    0.3773622 
O     0.1966578   -0.1014902    1.7768219 
H    -0.4320421   -0.1061521    2.5049272 
