10
Energy = -230.2263680860
H     0.4153939    0.0015973   -2.5156768 
O    -0.1956122   -0.1041118   -1.7800530 
C     0.5111312    0.1087085   -0.5607585 
H     1.0616786    1.0560528   -0.5756462 
H     1.2264619   -0.7003577   -0.3712468 
C    -0.5111312    0.1087086    0.5607585 
H    -1.0616785    1.0560529    0.5756462 
H    -1.2264619   -0.7003576    0.3712468 
O     0.1956122   -0.1041119    1.7800531 
H    -0.4153942    0.0015967    2.5156767 
