10
Energy =
H     0.3724503   -0.3384613   -2.4264184 
O    -0.2014520   -0.3244042   -1.6544978 
C     0.4672338    0.3560895   -0.5964900 
H     0.7029327    1.3910704   -0.8706714 
H     1.4020554   -0.1471984   -0.3231290 
C    -0.4671542    0.3561950    0.5964887 
H    -0.7026393    1.3912274    0.8706642 
H    -1.4020780   -0.1468990    0.3231246 
O     0.2013864   -0.3244287    1.6545045 
H    -0.3726280   -0.3385929    2.4263395 
