10
Energy =
H     0.3789119   -0.3229879   -2.4342819 
O    -0.2011666   -0.3095928   -1.6669799 
C     0.4722047    0.3398402   -0.5925496 
H     0.7313346    1.3740459   -0.8478640 
H     1.3941770   -0.1869119   -0.3197573 
C    -0.4721585    0.3399056    0.5925484 
H    -0.7311649    1.3741448    0.8478568 
H    -1.3941917   -0.1867360    0.3197532 
O     0.2011310   -0.3095995    1.6669864 
H    -0.3790527   -0.3231546    2.4342057 
