10
Energy = -230.2228225372
H     0.3873628   -0.3218951   -2.4494974 
O    -0.2017753   -0.3075503   -1.6880072 
C     0.4663161    0.3391888   -0.6041306 
H     0.7434000    1.3619663   -0.8839061 
H     1.3766014   -0.2001923   -0.3220177 
C    -0.4663160    0.3391889    0.6041306 
H    -0.7433997    1.3619664    0.8839062 
H    -1.3766015   -0.2001919    0.3220176 
O     0.2017752   -0.3075505    1.6880071 
H    -0.3873630   -0.3218953    2.4494973 
