10
Energy =
H     0.0847404   -0.6537149   -2.1682400 
O    -0.1044270   -0.6267326   -1.2254195 
C     0.1546017    0.6880090   -0.7417343 
H    -0.4768219    1.4314677   -1.2422225 
H     1.2027931    0.9718201   -0.8922744 
C    -0.1546021    0.6880109    0.7417320 
H     0.4768082    1.4314803    1.2422235 
H    -1.2027974    0.9718091    0.8922608 
O     0.1044437   -0.6267243    1.2254251 
H    -0.0849836   -0.6537738    2.1681913 
