10
Energy =
H     0.1037079   -0.6436543   -2.1800646 
O    -0.1216361   -0.6170854   -1.2452186 
C     0.1841277    0.6774180   -0.7349616 
H    -0.3880844    1.4575532   -1.2505946 
H     1.2505838    0.9087442   -0.8402032 
C    -0.1841284    0.6774200    0.7349590 
H     0.3880694    1.4575657    1.2505944 
H    -1.2505875    0.9087323    0.8401894 
O     0.1216527   -0.6170757    1.2452250 
H    -0.1039449   -0.6437255    2.1800073 
