10
Energy = -230.2261013161
H     0.4096991   -0.0083068   -2.5158678 
O    -0.1956750   -0.1209517   -1.7765652 
C     0.5095023    0.1269248   -0.5627520 
H     1.0444950    1.0825363   -0.5976554 
H     1.2383797   -0.6667042   -0.3602952 
C    -0.5095022    0.1269248    0.5627520 
H    -1.0444950    1.0825363    0.5976554 
H    -1.2383796   -0.6667041    0.3602951 
O     0.1956749   -0.1209516    1.7765653 
H    -0.4096993   -0.0083069    2.5158677 
