10
Energy = -229.0281963037
H     0.3915371   -0.6679275   -2.1760372 
O    -0.1935285   -0.5156687   -1.4258030 
C     0.3255618    0.5738597   -0.6780660 
H     0.1109968    1.5286520   -1.1735495 
H     1.4090957    0.4862776   -0.5443769 
C    -0.3255615    0.5738599    0.6780661 
H    -0.1109957    1.5286519    1.1735498 
H    -1.4090955    0.4862785    0.5443771 
O     0.1935281   -0.5156692    1.4258027 
H    -0.3915336   -0.6679230    2.1760410 
