10
Energy =
H    -0.2480343   -0.0100271    0.7122064 
O    -0.6612140   -0.0282310    1.5807475 
C     0.3571539    0.0225670    2.5756747 
H     0.9522053    0.9397655    2.4945421 
H     1.0365508   -0.8344126    2.4987184 
C    -0.3331309   -0.0069752    3.9243286 
H    -1.0130547    0.8496157    4.0008824 
H    -0.9276206   -0.9245092    4.0058584 
O     0.6851832    0.0448502    4.9192570 
H     0.2719615    0.0273566    5.7877945 
