10
Energy = -230.2130843821
H    -0.0013205   -0.5836745   -2.2399754 
O    -0.0321349   -0.6344083   -1.2791505 
C     0.0505481    0.6876801   -0.7717597 
H    -0.7505819    1.3183924   -1.1758858 
H     1.0054623    1.1406464   -1.0674821 
C    -0.0505480    0.6876801    0.7717597 
H     0.7505819    1.3183924    1.1758858 
H    -1.0054622    1.1406464    1.0674821 
O     0.0321349   -0.6344083    1.2791505 
H     0.0013224   -0.5836743    2.2399755 
10
Energy = -230.2150707785
H     0.0127604   -0.5762400   -2.2441318 
O    -0.0639863   -0.6277743   -1.2859782 
C     0.1001441    0.6806359   -0.7633929 
H    -0.6108553    1.3888861   -1.2062419 
H     1.1116334    1.0413507   -0.9926723 
C    -0.1001441    0.6806359    0.7633929 
H     0.6108553    1.3888861    1.2062419 
H    -1.1116334    1.0413507    0.9926723 
O     0.0639862   -0.6277743    1.2859782 
H    -0.0127598   -0.5762399    2.2441319 
10
Energy = -230.2178331067
H     0.0479681   -0.5686128   -2.2495699 
O    -0.0947043   -0.6165652   -1.2988859 
C     0.1482367    0.6689600   -0.7509521 
H    -0.4692146    1.4441800   -1.2220956 
H     1.2010778    0.9396117   -0.9091820 
C    -0.1482368    0.6689600    0.7509520 
H     0.4692145    1.4441800    1.2220956 
H    -1.2010778    0.9396117    0.9091820 
O     0.0947043   -0.6165652    1.2988859 
H    -0.0479694   -0.5686131    2.2495697 
10
Energy = -230.2207621592
H     0.1045425   -0.5654952   -2.2540850 
O    -0.1233194   -0.6005759   -1.3196748 
C     0.1943060    0.6526537   -0.7358864 
H    -0.3288085    1.4845521   -1.2254535 
H     1.2740364    0.8366571   -0.8215287 
C    -0.1943060    0.6526537    0.7358864 
H     0.3288083    1.4845523    1.2254535 
H    -1.2740364    0.8366569    0.8215285 
O     0.1233196   -0.6005758    1.3196749 
H    -0.1045454   -0.5654962    2.2540843 
10
Energy = -230.2233139623
H     0.1830406   -0.5743239   -2.2525693 
O    -0.1491703   -0.5794824   -1.3494285 
C     0.2376390    0.6318427   -0.7195044 
H    -0.1913162    1.5115522   -1.2181057 
H     1.3313076    0.7321316   -0.7342012 
C    -0.2376396    0.6318426    0.7195042 
H     0.1913159    1.5115518    1.2181058 
H    -1.3313081    0.7321318    0.7342010 
O     0.1491694   -0.5794828    1.3494280 
H    -0.1830424   -0.5743249    2.2525685 
10
Energy = -230.2251398214
H     0.2807434   -0.6068209   -2.2352226 
O    -0.1716172   -0.5530157   -1.3877430 
C     0.2777920    0.6070032   -0.7027778 
H    -0.0565432    1.5269728   -1.2018343 
H     1.3741154    0.6247434   -0.6507383 
C    -0.2777920    0.6070032    0.7027778 
H     0.0565431    1.5269729    1.2018343 
H    -1.3741154    0.6247433    0.6507382 
O     0.1716172   -0.5530157    1.3877430 
H    -0.2807439   -0.6068213    2.2352223 
10
Energy = -230.2261014778
H     0.3787998   -0.6689037   -2.1953545 
O    -0.1891693   -0.5211327   -1.4331965 
C     0.3151347    0.5787150   -0.6860759 
H     0.0767388    1.5317713   -1.1779660 
H     1.4040287    0.5133111   -0.5730338 
C    -0.3151345    0.5787151    0.6860760 
H    -0.0767382    1.5317714    1.1779660 
H    -1.4040285    0.5133116    0.5730340 
O     0.1891691   -0.5211328    1.4331965 
H    -0.3787979   -0.6689013    2.1953565 
10
Energy = -230.2261439561
H     0.4226509   -0.6961506   -2.1878244 
O    -0.1984582   -0.4861340   -1.4839292 
C     0.3509267    0.5448272   -0.6689843 
H     0.2086283    1.5249449   -1.1438548 
H     1.4234044    0.3955028   -0.5012635 
C    -0.3509264    0.5448275    0.6689844 
H    -0.2086273    1.5249451    1.1438549 
H    -1.4234042    0.3955037    0.5012637 
O     0.1984579   -0.4861342    1.4839292 
H    -0.4226494   -0.6961474    2.1878269 
10
Energy = -230.2253845755
H     0.4222920   -0.6512417   -2.2399816 
O    -0.2022193   -0.4493081   -1.5362730 
C     0.3839889    0.5042431   -0.6523771 
H     0.3386572    1.5064853   -1.0982064 
H     1.4318103    0.2680098   -0.4387133 
C    -0.3839886    0.5042433    0.6523772 
H    -0.3386565    1.5064855    1.0982065 
H    -1.4318101    0.2680105    0.4387134 
O     0.2022191   -0.4493081    1.5362730 
H    -0.4222915   -0.6512399    2.2399829 
10
Energy = -230.2242442756
H     0.4117678   -0.5696402   -2.3100612 
O    -0.2036114   -0.4097217   -1.5872938 
C     0.4133378    0.4586308   -0.6369443 
H     0.4667864    1.4765417   -1.0430904 
H     1.4281690    0.1314696   -0.3883596 
C    -0.4133377    0.4586309    0.6369443 
H    -0.4667860    1.4765418    1.0430904 
H    -1.4281690    0.1314699    0.3883596 
O     0.2036113   -0.4097218    1.5872937 
H    -0.4117676   -0.5696395    2.3100617 
10
Energy = -230.2232459230
H     0.3999013   -0.4681518   -2.3781261 
O    -0.2035385   -0.3671495   -1.6346572 
C     0.4388801    0.4089283   -0.6224078 
H     0.5917085    1.4345909   -0.9790855 
H     1.4125305   -0.0116508   -0.3509662 
C    -0.4388801    0.4089283    0.6224078 
H    -0.5917086    1.4345909    0.9790854 
H    -1.4125305   -0.0116509    0.3509662 
O     0.2035385   -0.3671494    1.6346572 
H    -0.3999013   -0.4681519    2.3781261 
10
Energy = -230.2228106959
H     0.3897002   -0.3561535   -2.4352551 
O    -0.2023189   -0.3217087   -1.6766262 
C     0.4605729    0.3557379   -0.6083020 
H     0.7099289    1.3804660   -0.9068900 
H     1.3862014   -0.1569555   -0.3267069 
C    -0.4605711    0.3557404    0.6083018 
H    -0.7099209    1.3804698    0.9068904 
H    -1.3862026   -0.1569472    0.3267063 
O     0.2023167   -0.3217109    1.6766256 
H    -0.3897029   -0.3561530    2.4352543 
10
Energy = -230.2231021753
H     0.3838603   -0.2432179   -2.4769308 
O    -0.2003077   -0.2736227   -1.7122076 
C     0.4783711    0.2996561   -0.5945532 
H     0.8169904    1.3151326   -0.8285740 
H     1.3519724   -0.2993406   -0.3157351 
C    -0.4783711    0.2996561    0.5945532 
H    -0.8169902    1.3151327    0.8285740 
H    -1.3519724   -0.2993404    0.3157351 
O     0.2003077   -0.2736228    1.7122076 
H    -0.3838604   -0.2432182    2.4769308 
10
Energy = -230.2239876288
H     0.3851557   -0.1403694   -2.5021471 
O    -0.1981103   -0.2231094   -1.7408885 
C     0.4924109    0.2413365   -0.5816389 
H     0.9096242    1.2406987   -0.7473842 
H     1.3135003   -0.4347500   -0.3182156 
C    -0.4924109    0.2413366    0.5816389 
H    -0.9096241    1.2406988    0.7473841 
H    -1.3135004   -0.4347499    0.3182155 
O     0.1981103   -0.2231094    1.7408885 
H    -0.3851557   -0.1403690    2.5021471 
10
Energy = -230.2251388528
H     0.3947344   -0.0574158   -2.5135706 
O    -0.1964008   -0.1703288   -1.7626410 
C     0.5029086    0.1814710   -0.5704794 
H     0.9868361    1.1596478   -0.6668560 
H     1.2739283   -0.5610410   -0.3343369 
C    -0.5029086    0.1814710    0.5704794 
H    -0.9868362    1.1596477    0.6668561 
H    -1.2739282   -0.5610410    0.3343369 
O     0.1964008   -0.1703288    1.7626410 
H    -0.3947344   -0.0574159    2.5135706 
10
Energy = -230.2261939690
H     0.4115864   -0.0046383   -2.5158385 
O    -0.1956452   -0.1153586   -1.7777910 
C     0.5100760    0.1208523   -0.5620537 
H     1.0503227    1.0737515   -0.5902527 
H     1.2344154   -0.6780053   -0.3638222 
C    -0.5100759    0.1208523    0.5620537 
H    -1.0503227    1.0737515    0.5902527 
H    -1.2344154   -0.6780052    0.3638221 
O     0.1956452   -0.1153586    1.7777910 
H    -0.4115866   -0.0046385    2.5158384 
10
Energy = -230.2268953456
H     0.4295020    0.0123074   -2.5143665 
O    -0.1957367   -0.0583776   -1.7866562 
C     0.5141635    0.0602333   -0.5569634 
H     1.1037213    0.9834625   -0.5201549 
H     1.1940273   -0.7866170   -0.4056716 
C    -0.5141634    0.0602336    0.5569633 
H    -1.1037206    0.9834631    0.5201547 
H    -1.1940277   -0.7866162    0.4056714 
O     0.1957366   -0.0583776    1.7866561 
H    -0.4295029    0.0123019    2.5143663 
10
Energy = -230.2271344350
H     0.4377693    0.0000012   -2.5133651 
O    -0.1959441    0.0000020   -1.7896050 
C     0.5154621   -0.0000037   -0.5553103 
H     1.1509074    0.8880887   -0.4582718 
H     1.1508977   -0.8881031   -0.4582760 
C    -0.5154620    0.0000005    0.5553106 
H    -1.1508983    0.8880997    0.4582757 
H    -1.1509065   -0.8880922    0.4582729 
O     0.1959443   -0.0000052    1.7896052 
H    -0.4377690   -0.0000913    2.5133652 
