10
Energy =
H     0.0485627   -0.6683294   -2.1503645 
O    -0.0654502   -0.6408554   -1.1955563 
C     0.0937668    0.7035046   -0.7518448 
H    -0.6494404    1.3676136   -1.2084891 
H     1.0914079    1.0897639   -0.9914955 
C    -0.0937658    0.7035079    0.7518389 
H     0.6494257    1.3676210    1.2084844 
H    -1.0914204    1.0897647    0.9914735 
O     0.0654887   -0.6408416    1.1955666 
H    -0.0491585   -0.6684043    2.1502980 
