10
Energy = -229.0159758220
H     0.0134070   -0.5705241   -2.2253221 
O    -0.0590819   -0.6312020   -1.2655583 
C     0.0907810    0.6845356   -0.7619400 
H    -0.6362625    1.3751946   -1.2024450 
H     1.0926336    1.0572803   -1.0048973 
C    -0.0907811    0.6845356    0.7619400 
H     0.6362625    1.3751944    1.2024451 
H    -1.0926337    1.0572805    1.0048973 
O     0.0590816   -0.6312021    1.2655583 
H    -0.0134049   -0.5705239    2.2253222 
