10
Energy =
H     0.2181003   -0.5573799   -2.2696230 
O    -0.1839744   -0.5347492   -1.3959890 
C     0.3284254    0.5870001   -0.6827859 
H     0.0967891    1.5282398   -1.1949716 
H     1.4159812    0.5222195   -0.5605466 
C    -0.3284360    0.5869989    0.6827786 
H    -0.0968363    1.5282436    1.1949552 
H    -1.4159958    0.5221833    0.5605233 
O     0.1840143   -0.5347085    1.3960102 
H    -0.2185445   -0.5576993    2.2694136 
