10
Energy = -229.0280979154
H     0.3661977   -0.6486904   -2.1881610 
O    -0.1894908   -0.5260513   -1.4105811 
C     0.3147303    0.5831592   -0.6831493 
H     0.0711783    1.5290918   -1.1823770 
H     1.4022880    0.5206152   -0.5669549 
C    -0.3147304    0.5831591    0.6831492 
H    -0.0711780    1.5290915    1.1823773 
H    -1.4022881    0.5206155    0.5669548 
O     0.1894903   -0.5260518    1.4105806 
H    -0.3661961   -0.6486888    2.1881624 
