10
Energy = -229.0265539941
H     0.4264650   -0.6225666   -2.2436906 
O    -0.2043228   -0.4384653   -1.5383992 
C     0.3957570    0.4919678   -0.6428804 
H     0.3840359    1.4958570   -1.0825178 
H     1.4303266    0.2240925   -0.4089297 
C    -0.3957570    0.4919679    0.6428804 
H    -0.3840358    1.4958570    1.0825178 
H    -1.4303266    0.2240926    0.4089298 
O     0.2043228   -0.4384652    1.5383992 
H    -0.4264648   -0.6225661    2.2436908 
