10
Energy =
H     0.2996225   -0.4653857   -2.3463289 
O    -0.1995717   -0.4466661   -1.5242174 
C     0.4070825    0.4903026   -0.6390089 
H     0.4107923    1.5005354   -1.0648465 
H     1.4420703    0.2121799   -0.4080015 
C    -0.4071154    0.4902782    0.6390032 
H    -0.4109132    1.5005067    1.0648305 
H    -1.4420845    0.2120661    0.4079822 
O     0.1996255   -0.4466088    1.5242378 
H    -0.2999482   -0.4658207    2.3461092 
