10
Energy =
H     0.0755615   -0.6580748   -2.1630163 
O    -0.0952166   -0.6309135   -1.2166971 
C     0.1395854    0.6925990   -0.7447062 
H    -0.5207060    1.4169488   -1.2358759 
H     1.1768843    1.0023698   -0.9178231 
C    -0.1395857    0.6926008    0.7447040 
H     0.5206930    1.4169613    1.2358774 
H    -1.1768890    1.0023591    0.9178095 
O     0.0952334   -0.6309059    1.2167023 
H    -0.0758074   -0.6581276    2.1629721 
