10
Energy =
H     0.2807262   -0.4909351   -2.3269274 
O    -0.1974052   -0.4706590   -1.4924203 
C     0.3897069    0.5166739   -0.6497661 
H     0.3368343    1.5137170   -1.1025625 
H     1.4418608    0.2911282   -0.4399621 
C    -0.3897163    0.5166687    0.6497640 
H    -0.3368788    1.5137168    1.1025562 
H    -1.4418603    0.2910885    0.4399530 
O     0.1974246   -0.4706378    1.4924288 
H    -0.2808780   -0.4911079    2.3268328 
