10
Energy = -229.0203286610
H     0.0596302   -0.5599529   -2.2329045 
O    -0.1050679   -0.6141147   -1.2843599 
C     0.1639930    0.6668670   -0.7429216 
H    -0.4217159    1.4567441   -1.2266863 
H     1.2264921    0.9044535   -0.8760736 
C    -0.1639929    0.6668670    0.7429216 
H     0.4217156    1.4567445    1.2266862 
H    -1.2264921    0.9044531    0.8760733 
O     0.1050685   -0.6141144    1.2843601 
H    -0.0596359   -0.5599543    2.2329037 
