10
Energy =
H     0.0000199   -0.6771423   -2.1398561 
O    -0.0000045   -0.6492030   -1.1782527 
C    -0.0000082    0.7126813   -0.7576940 
H    -0.8886664    1.2446818   -1.1189804 
H     0.8885534    1.2447478   -1.1191232 
C     0.0000086    0.7126814    0.7576935 
H     0.8886583    1.2446930    1.1189877 
H    -0.8885617    1.2447378    1.1191130 
O     0.0000216   -0.6492026    1.1782533 
H    -0.0002776   -0.6771402    2.1398565 
