10
Energy =
H     0.3585478   -0.3678396   -2.4100724 
O    -0.2015425   -0.3535407   -1.6280834 
C     0.4560280    0.3882066   -0.6048796 
H     0.6427215    1.4227605   -0.9159512 
H     1.4160290   -0.0663860   -0.3334755 
C    -0.4565101    0.3876406    0.6048753 
H    -0.6445101    1.4219527    0.9159369 
H    -1.4159402   -0.0681679    0.3334602 
O     0.2019996   -0.3532417    1.6281008 
H    -0.3583595   -0.3687722    2.4098758 
