10
Energy = -229.0241960711
H     0.4060714   -0.4205308   -2.3848967 
O    -0.2042388   -0.3495756   -1.6414650 
C     0.4498248    0.3885658   -0.6120596 
H     0.6454852    1.4117125   -0.9488766 
H     1.3999002   -0.0734478   -0.3286050 
C    -0.4498170    0.3885749    0.6120600 
H    -0.6454577    1.4117257    0.9488761 
H    -1.3999011   -0.0734207    0.3286057 
O     0.2042325   -0.3495779    1.6414660 
H    -0.4060784   -0.4205195    2.3848984 
