10
Energy = -230.2233139623
H     0.1830406   -0.5743239   -2.2525693 
O    -0.1491703   -0.5794824   -1.3494285 
C     0.2376390    0.6318427   -0.7195044 
H    -0.1913162    1.5115522   -1.2181057 
H     1.3313076    0.7321316   -0.7342012 
C    -0.2376396    0.6318426    0.7195042 
H     0.1913159    1.5115518    1.2181058 
H    -1.3313081    0.7321318    0.7342010 
O     0.1491694   -0.5794828    1.3494280 
H    -0.1830424   -0.5743249    2.2525685 
