10
Energy = -230.2232404262
H     0.3834916   -0.2215264   -2.4832426 
O    -0.1998596   -0.2637113   -1.7185016 
C     0.4814746    0.2881470   -0.5918768 
H     0.8367409    1.3008903   -0.8124503 
H     1.3445005   -0.3270805   -0.3151429 
C    -0.4814746    0.2881470    0.5918768 
H    -0.8367409    1.3008903    0.8124503 
H    -1.3445005   -0.3270805    0.3151429 
O     0.1998596   -0.2637112    1.7185016 
H    -0.3834916   -0.2215265    2.4832426 
