10
Energy =
H     0.3962248   -0.2753181   -2.4560991 
O    -0.2001230   -0.2639073   -1.7013396 
C     0.4853256    0.2896956   -0.5818412 
H     0.8122758    1.3173073   -0.7794080 
H     1.3671387   -0.3053133   -0.3167252 
C    -0.4853056    0.2897300    0.5818401 
H    -0.8122022    1.3173611    0.7794010 
H    -1.3671480   -0.3052326    0.3167224 
O     0.2001102   -0.2638998    1.7013453 
H    -0.3963251   -0.2755183    2.4560322 
