10
Energy = -229.0147241453
H     0.0056253   -0.5742624   -2.2233562 
O    -0.0396750   -0.6351774   -1.2619060 
C     0.0607228    0.6886810   -0.7670048 
H    -0.7210305    1.3325956   -1.1837147 
H     1.0284866    1.1172962   -1.0509855 
C    -0.0607228    0.6886810    0.7670048 
H     0.7210304    1.3325956    1.1837147 
H    -1.0284866    1.1172961    1.0509855 
O     0.0396750   -0.6351774    1.2619060 
H    -0.0056245   -0.5742623    2.2233562 
