10
Energy =
H     0.0317860   -0.6729856   -2.1445726 
O    -0.0442373   -0.6452868   -1.1859977 
C     0.0627159    0.7083731   -0.7550688 
H    -0.7322244    1.3300175   -1.1834960 
H     1.0281807    1.1443617   -1.0373951 
C    -0.0627145    0.7083755    0.7550638 
H     0.7322108    1.3300234    1.1834939 
H    -1.0281932    1.1443629    1.0373749 
O     0.0442759   -0.6452767    1.1860056 
H    -0.0323883   -0.6730319    2.1445294 
