10
Energy = -229.0246897145
H     0.3939468   -0.2155713   -2.4667183 
O    -0.2004792   -0.2639111   -1.7088841 
C     0.4829032    0.2883816   -0.5870185 
H     0.8409880    1.2984599   -0.8075947 
H     1.3403672   -0.3303958   -0.3053350 
C    -0.4829026    0.2883826    0.5870183 
H    -0.8409851    1.2984617    0.8075945 
H    -1.3403679   -0.3303929    0.3053348 
O     0.2004785   -0.2639115    1.7088840 
H    -0.3939498   -0.2155763    2.4667167 
