10
Energy =
H     0.3960173   -0.2747244   -2.4562112 
O    -0.2001282   -0.2639232   -1.7012898 
C     0.4853526    0.2896531   -0.5818242 
H     0.8124051    1.3172336   -0.7794009 
H     1.3671135   -0.3054383   -0.3167196 
C    -0.4852983    0.2897428    0.5818210 
H    -0.8121811    1.3173709    0.7793887 
H    -1.3671601   -0.3052096    0.3167076 
O     0.2000919   -0.2639094    1.7013036 
H    -0.3962643   -0.2751864    2.4560537 
