10
Energy =
H     0.3269023   -0.4259272   -2.3743641 
O    -0.2013836   -0.4083393   -1.5706058 
C     0.4303072    0.4482643   -0.6236160 
H     0.5154473    1.4730968   -1.0035957 
H     1.4356179    0.0928046   -0.3688314 
C    -0.4303298    0.4482442    0.6236142 
H    -0.5155390    1.4730740    1.0035888 
H    -1.4356146    0.0927184    0.3688245 
O     0.2014133   -0.4083100    1.5706137 
H    -0.3270149   -0.4261348    2.3742731 
