10
Energy = -230.2247124800
H     0.4164012   -0.6053546   -2.2815022 
O    -0.2032611   -0.4259108   -1.5671978 
C     0.4020547    0.4774094   -0.6429821 
H     0.4157996    1.4899289   -1.0662206 
H     1.4310881    0.1870563   -0.4069627 
C    -0.4020546    0.4774095    0.6429822 
H    -0.4157993    1.4899290    1.0662206 
H    -1.4310880    0.1870566    0.4069628 
O     0.2032610   -0.4259108    1.5671978 
H    -0.4164010   -0.6053539    2.2815027 
