10
Energy =
H     0.3092271   -0.4528712   -2.3556547 
O    -0.2003773   -0.4341676   -1.5399487 
C     0.4151935    0.4766159   -0.6337815 
H     0.4464854    1.4924162   -1.0449816 
H     1.4407830    0.1725116   -0.3937751 
C    -0.4152086    0.4766045    0.6337796 
H    -0.4465497    1.4924065    1.0449749 
H    -1.4407814    0.1724524    0.3937672 
O     0.2004008   -0.4341427    1.5399569 
H    -0.3093576   -0.4530632    2.3555615 
