10
Energy = -230.2228106959
H     0.3897002   -0.3561535   -2.4352551 
O    -0.2023189   -0.3217087   -1.6766262 
C     0.4605729    0.3557379   -0.6083020 
H     0.7099289    1.3804660   -0.9068900 
H     1.3862014   -0.1569555   -0.3267069 
C    -0.4605711    0.3557404    0.6083018 
H    -0.7099209    1.3804698    0.9068904 
H    -1.3862026   -0.1569472    0.3267063 
O     0.2023167   -0.3217109    1.6766256 
H    -0.3897029   -0.3561530    2.4352543 
