10
Energy =
H     0.4145438   -0.2091826   -2.4804304 
O    -0.1985633   -0.2005055   -1.7391832 
C     0.4988430    0.2200971   -0.5702903 
H     0.9106651    1.2290674   -0.6898585 
H     1.3238920   -0.4601771   -0.3285517 
C    -0.4988326    0.2201213    0.5702895 
H    -0.9106244    1.2291058    0.6898517 
H    -1.3239004   -0.4601281    0.3285504 
O     0.1985579   -0.2004929    1.7391877 
H    -0.4146144   -0.2094009    2.4803778 
