10
Energy = -230.2235329127
H     0.1919698   -0.5762180   -2.2518001 
O    -0.1515486   -0.5770935   -1.3528989 
C     0.2418163    0.6295162   -0.7178295 
H    -0.1777124    1.5135768   -1.2168493 
H     1.3362336    0.7215357   -0.7256058 
C    -0.2418165    0.6295162    0.7178294 
H     0.1777120    1.5135768    1.2168493 
H    -1.3362338    0.7215355    0.7256056 
O     0.1515486   -0.5770935    1.3528988 
H    -0.1919731   -0.5762197    2.2517988 
