10
Energy = -229.0136518119
H    -0.0000178   -0.5775995   -2.2217846 
O     0.0000039   -0.6383469   -1.2592309 
C     0.0000004    0.6920082   -0.7712642 
H    -0.8833229    1.2320268   -1.1287959 
H     0.8833229    1.2320289   -1.1287940 
C     0.0000002    0.6920083    0.7712642 
H     0.8833223    1.2320299    1.1287941 
H    -0.8833235    1.2320261    1.1287957 
O     0.0000035   -0.6383468    1.2592309 
H     0.0000672   -0.5775993    2.2217846 
