10
Energy =
H    -0.0006059   -0.6771368   -2.1397873 
O     0.0000431   -0.6492010   -1.1781894 
C     0.0000162    0.7126793   -0.7576876 
H    -0.8886097    1.2446949   -1.1190406 
H     0.8886083    1.2447014   -1.1191073 
C    -0.0000144    0.7126793    0.7576847 
H     0.8885977    1.2446976    1.1190438 
H    -0.8886212    1.2447018    1.1190918 
O    -0.0000045   -0.6491986    1.1781921 
H    -0.0000016   -0.6771262    2.1397920 
