10
Energy =
H     0.4246505   -0.1573969   -2.4946492 
O    -0.1974992   -0.1514953   -1.7609548 
C     0.5062345    0.1662388   -0.5637340 
H     0.9780167    1.1539255   -0.6255261 
H     1.2865243   -0.5731978   -0.3485647 
C    -0.5062149    0.1662927    0.5637319 
H    -0.9779093    1.1540132    0.6255166 
H    -1.2865712   -0.5730837    0.3485566 
O     0.1974889   -0.1514639    1.7609636 
H    -0.4247808   -0.1579248    2.4945535 
