10
Energy = -229.0139260305
H     0.0019151   -0.5767451   -2.2221680 
O    -0.0199193   -0.6375585   -1.2598729 
C     0.0304255    0.6911711   -0.7701794 
H    -0.8037675    1.2846256   -1.1592305 
H     0.9585355    1.1758664   -1.0925353 
C    -0.0304257    0.6911711    0.7701794 
H     0.8037672    1.2846258    1.1592305 
H    -0.9585358    1.1758661    1.0925352 
O     0.0199195   -0.6375585    1.2598729 
H    -0.0019148   -0.5767450    2.2221680 
