10
Energy =
H     0.0154690   -0.6757971   -2.1410454 
O    -0.0222859   -0.6479494   -1.1802064 
C     0.0314250    0.7113001   -0.7570164 
H    -0.8119317    1.2887761   -1.1534918 
H     0.9602998    1.1958231   -1.0800420 
C    -0.0314234    0.7113013    0.7570124 
H     0.8119191    1.2887803    1.1534923 
H    -0.9603124    1.1958242    1.0800240 
O     0.0223244   -0.6479431    1.1802117 
H    -0.0160752   -0.6758148    2.1410261 
