10
Energy =
H     0.1031292   -0.6434447   -2.1801522 
O    -0.1215971   -0.6170945   -1.2451569 
C     0.1841503    0.6774099   -0.7349506 
H    -0.3880127    1.4575506   -1.2506363 
H     1.2506184    0.9086898   -0.8401737 
C    -0.1841513    0.6774147    0.7349430 
H     0.3879924    1.4575611    1.2506251 
H    -1.2506313    0.9086853    0.8401487 
O     0.1216353   -0.6170704    1.2451732 
H    -0.1036895   -0.6436062    2.1800209 
