10
Energy = -229.0212723679
H     0.0744566   -0.5585309   -2.2345523 
O    -0.1136808   -0.6094217   -1.2902355 
C     0.1781436    0.6620618   -0.7383373 
H    -0.3790875    1.4688945   -1.2280661 
H     1.2487456    0.8736211   -0.8490075 
C    -0.1781436    0.6620619    0.7383372 
H     0.3790870    1.4688949    1.2280660 
H    -1.2487458    0.8736208    0.8490071 
O     0.1136813   -0.6094214    1.2902357 
H    -0.0744645   -0.5585330    2.2345509 
