10
Energy =
H     0.0401047   -0.6708874   -2.1471909 
O    -0.0549576   -0.6432916   -1.1903136 
C     0.0782792    0.7061808   -0.7536146 
H    -0.6911859    1.3492779   -1.1966397 
H     1.0603945    1.1174457   -1.0148178 
C    -0.0782780    0.7061837    0.7536091 
H     0.6911718    1.3492846    1.1966363 
H    -1.0604070    1.1174467    1.0147967 
O     0.0549961   -0.6432796    1.1903228 
H    -0.0407041   -0.6709480    2.1471360 
