10
Energy = -229.0152991600
H     0.0088996   -0.5725145   -2.2242411 
O    -0.0494318   -0.6333903   -1.2635067 
C     0.0757900    0.6868171   -0.7646913 
H    -0.6788329    1.3545948   -1.1937795 
H     1.0613076    1.0874206   -1.0284519 
C    -0.0757901    0.6868171    0.7646913 
H     0.6788329    1.3545947    1.1937795 
H    -1.0613076    1.0874208    1.0284520 
O     0.0494314   -0.6333903    1.2635067 
H    -0.0088971   -0.5725143    2.2242412 
