10
Energy = -230.2228664351
H     0.3924359   -0.3903406   -2.4195899 
O    -0.2027888   -0.3356304   -1.6646663 
C     0.4544782    0.3720244   -0.6125013 
H     0.6754467    1.3979461   -0.9293145 
H     1.3950832   -0.1134519   -0.3325907 
C    -0.4544737    0.3720298    0.6125013 
H    -0.6754295    1.3979541    0.9293147 
H    -1.3950847   -0.1134347    0.3325904 
O     0.2027846   -0.3356333    1.6646661 
H    -0.3924414   -0.3903373    2.4195893 
