10
Energy =
H     0.4363054   -0.0524906   -2.5112244 
O    -0.1961303   -0.0509371   -1.7863554 
C     0.5144569    0.0558489   -0.5562349 
H     1.0977201    0.9829262   -0.5087648 
H     1.2000391   -0.7877886   -0.4142163 
C    -0.5144490    0.0558955    0.5562335 
H    -1.0976432    0.9830068    0.5087579 
H    -1.2000929   -0.7877015    0.4142115 
O     0.1961260   -0.0509018    1.7863593 
H    -0.4363544   -0.0530406    2.5111900 
