10
Energy =
H     0.2073581   -0.5672372   -2.2603271 
O    -0.1805120   -0.5441850   -1.3803056 
C     0.3168981    0.5973594   -0.6882122 
H     0.0544371    1.5270008   -1.2066743 
H     1.4075743    0.5596416   -0.5837172 
C    -0.3169073    0.5973594    0.6882048 
H    -0.0544802    1.5270062    1.2066580 
H    -1.4075888    0.5596101    0.5836935 
O     0.1805514   -0.5441459    1.3803266 
H    -0.2078151   -0.5675424    2.2601219 
