10
Energy = -229.0278971386
H     0.3361184   -0.6281379   -2.2014945 
O    -0.1846463   -0.5360969   -1.3959199 
C     0.3037675    0.5920254   -0.6881925 
H     0.0312216    1.5284967   -1.1903592 
H     1.3945177    0.5544794   -0.5901052 
C    -0.3037674    0.5920256    0.6881925 
H    -0.0312230    1.5284978    1.1903584 
H    -1.3945175    0.5544779    0.5901051 
O     0.1846480   -0.5360952    1.3959214 
H    -0.3361269   -0.6281452    2.2014884 
