10
Energy =
H     0.3850254   -0.3073025   -2.4418617 
O    -0.2008464   -0.2945641   -1.6789627 
C     0.4768754    0.3233462   -0.5887918 
H     0.7590272    1.3560625   -0.8250171 
H     1.3857155   -0.2265339   -0.3175759 
C    -0.4768430    0.3233952    0.5887906 
H    -0.7589084    1.3561376    0.8250099 
H    -1.3857272   -0.2264085    0.3175723 
O     0.2008230   -0.2945633    1.6789689 
H    -0.3851479   -0.3074854    2.4417885 
