10
Energy = -229.0247496235
H     0.1553286   -0.5611957   -2.2379090 
O    -0.1456723   -0.5860595   -1.3224040 
C     0.2322245    0.6385713   -0.7186400 
H    -0.2115004    1.5051706   -1.2233240 
H     1.3232090    0.7491207   -0.7408321 
C    -0.2322249    0.6385716    0.7186395 
H     0.2114978    1.5051722    1.2233233 
H    -1.3232096    0.7491187    0.7408303 
O     0.1456742   -0.5860578    1.3224049 
H    -0.1553571   -0.5612079    2.2379001 
