10
Energy = -229.0175737600
H     0.0267261   -0.5661061   -2.2280072 
O    -0.0779664   -0.6256161   -1.2711972 
C     0.1204822    0.6787257   -0.7552647 
H    -0.5504682    1.4120814   -1.2158090 
H     1.1507451    0.9964656   -0.9551790 
C    -0.1204822    0.6787257    0.7552647 
H     0.5504682    1.4120815    1.2158090 
H    -1.1507451    0.9964655    0.9551790 
O     0.0779666   -0.6256161    1.2711972 
H    -0.0267262   -0.5661061    2.2280072 
