10
Energy =
H     0.0659763   -0.6618412   -2.1583203 
O    -0.0855948   -0.6346675   -1.2087413 
C     0.1244489    0.6967079   -0.7473793 
H    -0.5640951    1.4014612   -1.2281617 
H     1.1497021    1.0321794   -0.9429076 
C    -0.1244484    0.6967120    0.7473726 
H     0.5640789    1.4014699    1.2281546 
H    -1.1497146    1.0321792    0.9428842 
O     0.0856332   -0.6346501    1.2087539 
H    -0.0665628   -0.6619448    2.1582311 
