10
Energy =
H     0.4371349   -0.0354704   -2.5124268 
O    -0.1960260   -0.0339627   -1.7881838 
C     0.5150108    0.0372715   -0.5557289 
H     1.1158497    0.9520135   -0.4912714 
H     1.1841438   -0.8217385   -0.4281392 
C    -0.5150091    0.0372898    0.5557287 
H    -1.1158323    0.9520430    0.4912662 
H    -1.1841560   -0.8217083    0.4281412 
O     0.1960252   -0.0339468    1.7881849 
H    -0.4371474   -0.0357061    2.5124168 
