10
Energy = -230.2270483133
H     0.4346053    0.0098748   -2.5137559 
O    -0.1958536   -0.0351388   -1.7885404 
C     0.5150005    0.0360917   -0.5558999 
H     1.1231628    0.9459839   -0.4943488 
H     1.1772021   -0.8280043   -0.4255228 
C    -0.5150004    0.0360923    0.5558998 
H    -1.1231612    0.9459855    0.4943492 
H    -1.1772033   -0.8280026    0.4255219 
O     0.1958535   -0.0351400    1.7885403 
H    -0.4346065    0.0098621    2.5137556 
