10
Energy = -230.2261014778
H     0.3787998   -0.6689037   -2.1953545 
O    -0.1891693   -0.5211327   -1.4331965 
C     0.3151347    0.5787150   -0.6860759 
H     0.0767388    1.5317713   -1.1779660 
H     1.4040287    0.5133111   -0.5730338 
C    -0.3151345    0.5787151    0.6860760 
H    -0.0767382    1.5317714    1.1779660 
H    -1.4040285    0.5133116    0.5730340 
O     0.1891691   -0.5211328    1.4331965 
H    -0.3787979   -0.6689013    2.1953565 
