10
Energy = -230.2237772339
H     0.3842397   -0.1596406   -2.4983321 
O    -0.1985322   -0.2333979   -1.7357115 
C     0.4898934    0.2531470   -0.5841139 
H     0.8923356    1.2561910   -0.7636795 
H     1.3213638   -0.4083575   -0.3166298 
C    -0.4898934    0.2531469    0.5841139 
H    -0.8923356    1.2561910    0.7636795 
H    -1.3213638   -0.4083575    0.3166298 
O     0.1985322   -0.2333980    1.7357115 
H    -0.3842397   -0.1596405    2.4983321 
