10
Energy =
H     0.0324068   -0.6730598   -2.1445860 
O    -0.0442822   -0.6452849   -1.1860610 
C     0.0626913    0.7083775   -0.7550766 
H    -0.7322883    1.3300098   -1.1834405 
H     1.0281311    1.1444121   -1.0374169 
C    -0.0626911    0.7083784    0.7550752 
H     0.7322782    1.3300217    1.1834453 
H    -1.0281377    1.1444022    1.0374047 
O     0.0442991   -0.6452813    1.1860637 
H    -0.0326621   -0.6730820    2.1445660 
