10
Energy = -230.2133929192
H    -0.0000567   -0.5824153   -2.2406282 
O    -0.0385474   -0.6334410   -1.2801039 
C     0.0605665    0.6866445   -0.7704813 
H    -0.7229884    1.3336570   -1.1832112 
H     1.0280069    1.1211055   -1.0534226 
C    -0.0605664    0.6866445    0.7704813 
H     0.7229884    1.3336570    1.1832111 
H    -1.0280069    1.1211055    1.0534226 
O     0.0385474   -0.6334410    1.2801040 
H     0.0000583   -0.5824151    2.2406282 
