10
Energy = -229.0240440005
H     0.4005745   -0.3523205   -2.4178994 
O    -0.2032551   -0.3219071   -1.6664286 
C     0.4621895    0.3561761   -0.6036221 
H     0.7149825    1.3779034   -0.9038296 
H     1.3825898   -0.1605116   -0.3162282 
C    -0.4621887    0.3561772    0.6036220 
H    -0.7149790    1.3779051    0.9038297 
H    -1.3825903   -0.1605081    0.3162281 
O     0.2032542   -0.3219078    1.6664285 
H    -0.4005759   -0.3523209    2.4178988 
