10
Energy =
H     0.0080413   -0.6765311   -2.1402070 
O    -0.0111922   -0.6486160   -1.1788155 
C     0.0157033    0.7120354   -0.7575116 
H    -0.8505429    1.2668115   -1.1366633 
H     0.9246602    1.2203808   -1.1000006 
C    -0.0157030    0.7120357    0.7575108 
H     0.8505343    1.2668227    1.1366699 
H    -0.9246681    1.2203708    1.0999899 
O     0.0112093   -0.6486148    1.1788166 
H    -0.0082988   -0.6765351    2.1402022 
