10
Energy = -230.2124263218
H    -0.0008314   -0.5865007   -2.2385758 
O    -0.0096451   -0.6363992   -1.2772348 
C     0.0152136    0.6898268   -0.7744667 
H    -0.8448668    1.2608348   -1.1451189 
H     0.9217759    1.2071174   -1.1124327 
C    -0.0152136    0.6898268    0.7744667 
H     0.8448668    1.2608348    1.1451189 
H    -0.9217759    1.2071173    1.1124327 
O     0.0096453   -0.6363992    1.2772348 
H     0.0008331   -0.5865007    2.2385758 
