10
Energy =
H     0.0160936   -0.6758369   -2.1410864 
O    -0.0223321   -0.6479495   -1.1802697 
C     0.0314004    0.7113033   -0.7570235 
H    -0.8119923    1.2887657   -1.1534337 
H     0.9602473    1.1958717   -1.0800609 
C    -0.0314001    0.7113039    0.7570225 
H     0.8119832    1.2887771    1.1534397 
H    -0.9602548    1.1958618    1.0800497 
O     0.0223492   -0.6479474    1.1802714 
H    -0.0163506   -0.6758470    2.1410765 
