10
Energy =
H     0.2602019   -0.5142014   -2.3077932 
O    -0.1941650   -0.4934097   -1.4601312 
C     0.3708130    0.5416162   -0.6607220 
H     0.2597739    1.5227262   -1.1371833 
H     1.4376604    0.3692158   -0.4762472 
C    -0.3708312    0.5416077    0.6607155 
H    -0.2598451    1.5227198    1.1371668 
H    -1.4376755    0.3691535    0.4762258 
O     0.1942086   -0.4933623    1.4601524 
H    -0.2605912   -0.5145772    2.3075735 
