10
Energy =
H     0.4143949   -0.2085573   -2.4805039 
O    -0.1985648   -0.2005264   -1.7391346 
C     0.4988609    0.2200628   -0.5702737 
H     0.9107628    1.2290029   -0.6898500 
H     1.3238647   -0.4602720   -0.3285513 
C    -0.4988319    0.2201252    0.5702711 
H    -0.9106263    1.2291017    0.6898393 
H    -1.3239099   -0.4601299    0.3285416 
O     0.1985483   -0.2004994    1.7391457 
H    -0.4145698   -0.2090648    2.4803801 
