10
Energy = -230.2258033006
H     0.4042152   -0.0215045   -2.5156836 
O    -0.1958229   -0.1376048   -1.7725054 
C     0.5075938    0.1451373   -0.5650456 
H     1.0263653    1.1086336   -0.6202366 
H     1.2502404   -0.6322870   -0.3504723 
C    -0.5075937    0.1451373    0.5650457 
H    -1.0263652    1.1086336    0.6202366 
H    -1.2502403   -0.6322870    0.3504722 
O     0.1958229   -0.1376048    1.7725054 
H    -0.4042154   -0.0215044    2.5156835 
