10
Energy =
H     0.2901014   -0.4780901   -2.3367466 
O    -0.1985888   -0.4588315   -1.5083605 
C     0.3985899    0.5036569   -0.6443423 
H     0.3742446    1.5076359   -1.0840640 
H     1.4424445    0.2517224   -0.4234054 
C    -0.3986180    0.5036379    0.6443364 
H    -0.3743488    1.5076149    1.0840478 
H    -1.4424592    0.2516258    0.4233855 
O     0.1986389   -0.4587772    1.5083811 
H    -0.2904443   -0.4785096    2.3365259 
