10
Energy = -229.0269549538
H     0.4283752   -0.6434987   -2.2237458 
O    -0.2037868   -0.4501151   -1.5223278 
C     0.3866569    0.5052370   -0.6476304 
H     0.3455965    1.5036135   -1.0983259 
H     1.4304040    0.2641106   -0.4251342 
C    -0.3866568    0.5052370    0.6476304 
H    -0.3455962    1.5036135    1.0983260 
H    -1.4304040    0.2641109    0.4251342 
O     0.2037866   -0.4501152    1.5223277 
H    -0.4283747   -0.6434975    2.2237465 
