10
Energy = -230.2243603936
H     0.4129505   -0.5788884   -2.3029306 
O    -0.2035467   -0.4138140   -1.5823186 
C     0.4105744    0.4633885   -0.6384385 
H     0.4540797    1.4800677   -1.0490070 
H     1.4290814    0.1454761   -0.3928156 
C    -0.4105743    0.4633886    0.6384386 
H    -0.4540794    1.4800678    1.0490070 
H    -1.4290814    0.1454764    0.3928156 
O     0.2035467   -0.4138140    1.5823186 
H    -0.4129504   -0.5788878    2.3029309 
