10
Energy = -229.0240802202
H     0.4031619   -0.3866179   -2.4020779 
O    -0.2037979   -0.3358639   -1.6542394 
C     0.4561979    0.3724792   -0.6078313 
H     0.6807500    1.3952952   -0.9266798 
H     1.3916390   -0.1171226   -0.3218295 
C    -0.4561561    0.3725319    0.6078324 
H    -0.6806005    1.3953750    0.9266710 
H    -1.3916482   -0.1169742    0.3218357 
O     0.2037680   -0.3358662    1.6542482 
H    -0.4032238   -0.3866146    2.4020613 
