10
Energy =
H     0.3650953   -0.3534350   -2.4184406 
O    -0.2019552   -0.3388484   -1.6414893 
C     0.4622722    0.3716906   -0.6005906 
H     0.6750165    1.4065503   -0.8933825 
H     1.4092355   -0.1086246   -0.3276908 
C    -0.4615275    0.3726156    0.6005865 
H    -0.6722218    1.4078892    0.8933685 
H    -1.4094441   -0.1058275    0.3276761 
O     0.2012939   -0.3392031    1.6415062 
H    -0.3660592   -0.3531997    2.4182494 
