10
Energy =
H     0.2571884   -0.5184581   -2.3043915 
O    -0.1935490   -0.4970464   -1.4548032 
C     0.3675013    0.5456409   -0.6625795 
H     0.2465677    1.5238384   -1.1426000 
H     1.4365440    0.3821852   -0.4827284 
C    -0.3675082    0.5456384    0.6625772 
H    -0.2466036    1.5238424    1.1425942 
H    -1.4365441    0.3821540    0.4827183 
O     0.1935669   -0.4970272    1.4548119 
H    -0.2573549   -0.5186172    2.3042975 
