10
Energy = -230.2261439561
H     0.4226509   -0.6961506   -2.1878244 
O    -0.1984582   -0.4861340   -1.4839292 
C     0.3509267    0.5448272   -0.6689843 
H     0.2086283    1.5249449   -1.1438548 
H     1.4234044    0.3955028   -0.5012635 
C    -0.3509264    0.5448275    0.6689844 
H    -0.2086273    1.5249451    1.1438549 
H    -1.4234042    0.3955037    0.5012637 
O     0.1984579   -0.4861342    1.4839292 
H    -0.4226494   -0.6961474    2.1878269 
