10
Energy =
H     0.1330642   -0.6250064   -2.2010028 
O    -0.1441075   -0.5994644   -1.2801685 
C     0.2268898    0.6580516   -0.7229000 
H    -0.2536793    1.4891655   -1.2522626 
H     1.3120363    0.8094619   -0.7609608 
C    -0.2268925    0.6580560    0.7228921 
H     0.2536545    1.4891761    1.2522491 
H    -1.3120495    0.8094521    0.7609355 
O     0.1441456   -0.5994356    1.2801869 
H    -0.1335987   -0.6252114    2.2008439 
