10
Energy = -229.0239522404
H     0.1317940   -0.5587586   -2.2379397 
O    -0.1380676   -0.5926129   -1.3130119 
C     0.2191386    0.6450753   -0.7236982 
H    -0.2528974    1.4978321   -1.2259776 
H     1.3067302    0.7804832   -0.7676071 
C    -0.2191390    0.6450756    0.7236976 
H     0.2528944    1.4978342    1.2259766 
H    -1.3067309    0.7804807    0.7676051 
O     0.1380704   -0.5926107    1.3130130 
H    -0.1318403   -0.5587763    2.2379272 
