10
Energy =
H     0.3926435   -0.2860672   -2.4514959 
O    -0.2003736   -0.2742111   -1.6941235 
C     0.4826389    0.3010060   -0.5840730 
H     0.7948385    1.3306334   -0.7945814 
H     1.3735686   -0.2791337   -0.3164942 
C    -0.4826158    0.3010439    0.5840719 
H    -0.7947541    1.3306923    0.7945743 
H    -1.3735785   -0.2790424    0.3164912 
O     0.2003583   -0.2742052    1.6941293 
H    -0.3927501   -0.2862628    2.4514268 
