10
Energy =
H     0.4104709   -0.2259598   -2.4749031 
O    -0.1989496   -0.2165897   -1.7306304 
C     0.4958700    0.2377536   -0.5728780 
H     0.8870363    1.2524309   -0.7119244 
H     1.3354265   -0.4218668   -0.3239563 
C    -0.4958579    0.2377794    0.5728771 
H    -0.8869903    1.2524718    0.7119176 
H    -1.3354350   -0.4218128    0.3239547 
O     0.1989430   -0.2165780    1.7306352 
H    -0.4105482   -0.2261745    2.4748467 
