10
Energy = -230.2130843821
H    -0.0013205   -0.5836745   -2.2399754 
O    -0.0321349   -0.6344083   -1.2791505 
C     0.0505481    0.6876801   -0.7717597 
H    -0.7505819    1.3183924   -1.1758858 
H     1.0054623    1.1406464   -1.0674821 
C    -0.0505480    0.6876801    0.7717597 
H     0.7505819    1.3183924    1.1758858 
H    -1.0054622    1.1406464    1.0674821 
O     0.0321349   -0.6344083    1.2791505 
H     0.0013224   -0.5836743    2.2399755 
