10
Energy = -230.2204784923
H     0.0979239   -0.5654308   -2.2537804 
O    -0.1205712   -0.6023983   -1.3171978 
C     0.1898120    0.6544928   -0.7374713 
H    -0.3427298    1.4811482   -1.2256300 
H     1.2674649    0.8470082   -0.8303474 
C    -0.1898123    0.6544929    0.7374712 
H     0.3427294    1.4811483    1.2256299 
H    -1.2674652    0.8470081    0.8303471 
O     0.1205710   -0.6023982    1.3171978 
H    -0.0979310   -0.5654331    2.2537788 
