10
Energy =
H     0.1134920   -0.6379605   -2.1866185 
O    -0.1295937   -0.6116256   -1.2562214 
C     0.1985999    0.6714242   -0.7311837 
H    -0.3433896    1.4691018   -1.2525979 
H     1.2724358    0.8762611   -0.8138562 
C    -0.1986008    0.6714262    0.7311811 
H     0.3433738    1.4691143    1.2525971 
H    -1.2724391    0.8762488    0.8138425 
O     0.1296103   -0.6116153    1.2562282 
H    -0.1137255   -0.6380378    2.1865571 
