10
Energy =
H     0.1756028   -0.5947728   -2.2333014 
O    -0.1676538   -0.5702155   -1.3349726 
C     0.2801973    0.6259642   -0.7039605 
H    -0.0757152    1.5170220   -1.2342974 
H     1.3746491    0.6695595   -0.6571523 
C    -0.2801998    0.6259655    0.7039579 
H     0.0756937    1.5170328    1.2342939 
H    -1.3746508    0.6695422    0.6571395 
O     0.1676703   -0.5702013    1.3349808 
H    -0.1758110   -0.5948865    2.2332200 
