10
Energy = -230.2246795858
H     0.2498659   -0.5937012   -2.2428976 
O    -0.1652666   -0.5615448   -1.3754384 
C     0.2660922    0.6148207   -0.7077897 
H    -0.0967532    1.5234649   -1.2075411 
H     1.3627199    0.6573399   -0.6752042 
C    -0.2660923    0.6148207    0.7077897 
H     0.0967530    1.5234649    1.2075411 
H    -1.3627199    0.6573398    0.6752041 
O     0.1652666   -0.5615448    1.3754384 
H    -0.2498671   -0.5937020    2.2428969 
