10
Energy = -229.0267118497
H     0.2393565   -0.5811548   -2.2297038 
O    -0.1667751   -0.5633943   -1.3557534 
C     0.2694614    0.6167595   -0.7033430 
H    -0.0892261    1.5210516   -1.2101667 
H     1.3645206    0.6534681   -0.6630098 
C    -0.2694620    0.6167596    0.7033426 
H     0.0892234    1.5210529    1.2101658 
H    -1.3645212    0.6534658    0.6630086 
O     0.1667770   -0.5633925    1.3557544 
H    -0.2393795   -0.5811686    2.2296929 
