10
Energy =
H     0.1750919   -0.5944502   -2.2334536 
O    -0.1676198   -0.5702305   -1.3349133 
C     0.2802160    0.6259544   -0.7039468 
H    -0.0756452    1.5170123   -1.2343245 
H     1.3746688    0.6695069   -0.6571214 
C    -0.2802218    0.6259570    0.7039390 
H     0.0756119    1.5170210    1.2343090 
H    -1.3746827    0.6694866    0.6570967 
O     0.1676582   -0.5701957    1.3349336 
H    -0.1755847   -0.5947127    2.2332647 
