10
Energy =
H     0.0941225   -0.6489070   -2.1739304 
O    -0.1132410   -0.6221222   -1.2349385 
C     0.1694553    0.6829475   -0.7384825 
H    -0.4325885    1.4450056   -1.2471334 
H     1.2273653    0.9406045   -0.8663722 
C    -0.1694558    0.6829495    0.7384801 
H     0.4325742    1.4450182    1.2471338 
H    -1.2273693    0.9405931    0.8663585 
O     0.1132577   -0.6221132    1.2349445 
H    -0.0943628   -0.6489721    2.1738773 
