10
Energy = -230.2153218274
H     0.0153111   -0.5754136   -2.2446460 
O    -0.0671267   -0.6268617   -1.2869675 
C     0.1050278    0.6796760   -0.7623080 
H    -0.5967146    1.3951088   -1.2084459 
H     1.1213336    1.0312518   -0.9846412 
C    -0.1050278    0.6796760    0.7623080 
H     0.5967146    1.3951088    1.2084459 
H    -1.1213335    1.0312518    0.9846412 
O     0.0671267   -0.6268617    1.2869675 
H    -0.0153105   -0.5754135    2.2446461 
