10
Energy =
H     0.3265966   -0.4253891   -2.3745408 
O    -0.2013480   -0.4083709   -1.5705524 
C     0.4303025    0.4482684   -0.6235991 
H     0.5154508    1.4730967   -1.0035969 
H     1.4356135    0.0928109   -0.3688126 
C    -0.4303617    0.4482137    0.6235940 
H    -0.5156659    1.4730247    1.0035815 
H    -1.4356236    0.0926020    0.3687950 
O     0.2014232   -0.4082985    1.5705717 
H    -0.3268598   -0.4258800    2.3743276 
