10
Energy =
H     0.4371179   -0.0348103   -2.5123863 
O    -0.1960296   -0.0339876   -1.7881377 
C     0.5150193    0.0372422   -0.5557134 
H     1.1159173    0.9519495   -0.4912634 
H     1.1841094   -0.8218053   -0.4281508 
C    -0.5150130    0.0372883    0.5557122 
H    -1.1158438    0.9520302    0.4912569 
H    -1.1841649   -0.8217207    0.4281465 
O     0.1960260   -0.0339521    1.7881408 
H    -0.4371537   -0.0353620    2.5123625 
