10
Energy = -229.0299839371
H     0.4454479    0.0203973   -2.4960616 
O    -0.1959476   -0.0355130   -1.7791122 
C     0.5165967    0.0357926   -0.5502235 
H     1.1219649    0.9453860   -0.4858164 
H     1.1752007   -0.8285266   -0.4164643 
C    -0.5165964    0.0357943    0.5502234 
H    -1.1219616    0.9453897    0.4858164 
H    -1.1752033   -0.8285227    0.4164634 
O     0.1959474   -0.0355138    1.7791122 
H    -0.4454507    0.0203717    2.4960612 
