10
Energy =
H     0.4274071   -0.1401124   -2.4985251 
O    -0.1971901   -0.1349287   -1.7669078 
C     0.5081959    0.1480526   -0.5619655 
H     0.9992865    1.1272938   -0.6048416 
H     1.2731913   -0.6100898   -0.3572251 
C    -0.5081786    0.1481046    0.5619634 
H    -0.9991859    1.1273793    0.6048325 
H    -1.2732390   -0.6099821    0.3572176 
O     0.1971812   -0.1348964    1.7669157 
H    -0.4275234   -0.1406455    2.4984393 
