10
Energy = -230.2234110320
H     0.4022341   -0.4895807   -2.3651784 
O    -0.2036488   -0.3759004   -1.6255782 
C     0.4340765    0.4191636   -0.6252697 
H     0.5671188    1.4439616   -0.9925793 
H     1.4165780    0.0173113   -0.3573986 
C    -0.4340765    0.4191636    0.6252697 
H    -0.5671189    1.4439616    0.9925793 
H    -1.4165780    0.0173113    0.3573986 
O     0.2036488   -0.3759004    1.6255782 
H    -0.4022341   -0.4895808    2.3651783 
