10
Energy = -229.0240892249
H     0.3982816   -0.3178224   -2.4323267 
O    -0.2026413   -0.3077387   -1.6779997 
C     0.4678658    0.3395707   -0.5994238 
H     0.7482671    1.3594359   -0.8804066 
H     1.3728345   -0.2037101   -0.3117733 
C    -0.4678650    0.3395718    0.5994237 
H    -0.7482639    1.3594376    0.8804065 
H    -1.3728350   -0.2037068    0.3117731 
O     0.2026405   -0.3077393    1.6779996 
H    -0.3982831   -0.3178233    2.4323259 
