10
Energy =
H     0.3786447   -0.3224375   -2.4344187 
O    -0.2011891   -0.3095964   -1.6669291 
C     0.4722543    0.3397724   -0.5925326 
H     0.7315467    1.3739377   -0.8478586 
H     1.3941497   -0.1871182   -0.3197476 
C    -0.4721305    0.3399445    0.5925288 
H    -0.7310677    1.3741930    0.8478453 
H    -1.3942101   -0.1866348    0.3197339 
O     0.2010918   -0.3096199    1.6669448 
H    -0.3789945   -0.3228128    2.4342397 
