10
Energy = -230.2251388528
H     0.3947344   -0.0574158   -2.5135706 
O    -0.1964008   -0.1703288   -1.7626410 
C     0.5029086    0.1814710   -0.5704794 
H     0.9868361    1.1596478   -0.6668560 
H     1.2739283   -0.5610410   -0.3343369 
C    -0.5029086    0.1814710    0.5704794 
H    -0.9868362    1.1596477    0.6668561 
H    -1.2739282   -0.5610410    0.3343369 
O     0.1964008   -0.1703288    1.7626410 
H    -0.3947344   -0.0574159    2.5135706 
