10
Energy = -229.0295928375
H     0.4355064    0.0285857   -2.4973564 
O    -0.1956346   -0.0705106   -1.7759480 
C     0.5151950    0.0718814   -0.5520040 
H     1.0931946    1.0007427   -0.5251355 
H     1.1997964   -0.7665494   -0.3869534 
C    -0.5151948    0.0718818    0.5520039 
H    -1.0931939    1.0007435    0.5251352 
H    -1.1997967   -0.7665486    0.3869530 
O     0.1956344   -0.0705107    1.7759480 
H    -0.4355079    0.0285797    2.4973561 
