10
Energy = -230.2262385191
H     0.4097678   -0.6934316   -2.1818001 
O    -0.1948541   -0.5038047   -1.4581371 
C     0.3332303    0.5626961   -0.6775704 
H     0.1429000    1.5298660   -1.1624876 
H     1.4149592    0.4555231   -0.5363169 
C    -0.3332300    0.5626963    0.6775705 
H    -0.1428992    1.5298661    1.1624877 
H    -1.4149590    0.4555238    0.5363171 
O     0.1948538   -0.5038049    1.4581370 
H    -0.4097660   -0.6934286    2.1818026 
