10
Energy =
H     0.3178848   -0.4390267   -2.3652489 
O    -0.2009311   -0.4214269   -1.5553521 
C     0.4229344    0.4625982   -0.6286239 
H     0.4814010    1.4832590   -1.0245469 
H     1.4386148    0.1326950   -0.3806850 
C    -0.4229819    0.4625573    0.6286186 
H    -0.4815735    1.4832066    1.0245313 
H    -1.4386270    0.1325289    0.3806668 
O     0.2009964   -0.4213611    1.5553718 
H    -0.3181717   -0.4394963    2.3650330 
