10
Energy = -229.0257242552
H     0.4213095   -0.5733691   -2.2854854 
O    -0.2049120   -0.4143736   -1.5698205 
C     0.4129197    0.4642089   -0.6337084 
H     0.4603825    1.4772292   -1.0484078 
H     1.4269094    0.1417496   -0.3800466 
C    -0.4129197    0.4642089    0.6337085 
H    -0.4603825    1.4772292    1.0484078 
H    -1.4269094    0.1417497    0.3800466 
O     0.2049120   -0.4143736    1.5698205 
H    -0.4213094   -0.5733688    2.2854855 
