10
Energy =
H     0.4319386   -0.1052677   -2.5049621 
O    -0.1966617   -0.1015294   -1.7767725 
C     0.5113996    0.1113878   -0.5590495 
H     1.0402001    1.0717306   -0.5648346 
H     1.2452243   -0.6825957   -0.3773685 
C    -0.5113865    0.1114370    0.5590478 
H    -1.0401107    1.0718131    0.5648264 
H    -1.2452741   -0.6824982    0.3773621 
O     0.1966550   -0.1014955    1.7767788 
H    -0.4320276   -0.1058094    2.5048964 
