10
Energy =
H     0.4216857   -0.1752103   -2.4902944 
O    -0.1978327   -0.1679358   -1.7543821 
C     0.5040129    0.1843433   -0.5657254 
H     0.9560951    1.1798292   -0.6466236 
H     1.2994470   -0.5358269   -0.3408793 
C    -0.5040049    0.1843652    0.5657247 
H    -0.9560622    1.1798641    0.6466171 
H    -1.2994557   -0.5357850    0.3408787 
O     0.1978290   -0.1679219    1.7543859 
H    -0.4217439   -0.1754343    2.4902498 
