10
Energy =
H     0.2393827   -0.5365262   -2.2885624 
O    -0.1897585   -0.5147848   -1.4278781 
C     0.3503751    0.5650823   -0.6717852 
H     0.1796532    1.5275760   -1.1681536 
H     1.4291380    0.4463284   -0.5165933 
C    -0.3503890    0.5650780    0.6717783 
H    -0.1797106    1.5275756    1.1681370 
H    -1.4291530    0.4462809    0.5165709 
O     0.1897998   -0.5147409    1.4278993 
H    -0.2398003   -0.5368738    2.2883466 
