10
Energy = -229.0281930843
H     0.4098770   -0.6815861   -2.1689362 
O    -0.1966823   -0.5050977   -1.4414624 
C     0.3363018    0.5639793   -0.6729217 
H     0.1506342    1.5271177   -1.1636949 
H     1.4150304    0.4513325   -0.5223714 
C    -0.3363014    0.5639795    0.6729219 
H    -0.1506329    1.5271177    1.1636951 
H    -1.4150301    0.4513337    0.5223717 
O     0.1966819   -0.5050981    1.4414623 
H    -0.4098740   -0.6815814    2.1689401 
