10
Energy = -229.0167394246
H     0.0192931   -0.5683608   -2.2265819 
O    -0.0686045   -0.6286113   -1.2681025 
C     0.1056815    0.6818392   -0.7587861 
H    -0.5934388    1.3943620   -1.2097721 
H     1.1224468    1.0269444   -0.9804354 
C    -0.1056815    0.6818392    0.7587861 
H     0.5934387    1.3943620    1.2097721 
H    -1.1224468    1.0269444    0.9804354 
O     0.0686044   -0.6286113    1.2681025 
H    -0.0192928   -0.5683607    2.2265819 
