10
Energy =
H     0.0571809   -0.6653133   -2.1540797 
O    -0.0756751   -0.6379801   -1.2017065 
C     0.1091623    0.7003462   -0.7497644 
H    -0.6070538    1.3850120   -1.2190074 
H     1.1211872    1.0613353   -0.9675003 
C    -0.1091615    0.7003500    0.7497581 
H     0.6070384    1.3850201    1.2190015 
H    -1.1211997    1.0613357    0.9674776 
O     0.0757135   -0.6379645    1.2017179 
H    -0.0577724   -0.6654026    2.1540016 
