10
Energy = -229.0222006803
H     0.0912678   -0.5576607   -2.2360737 
O    -0.1220560   -0.6042815   -1.2969474 
C     0.1920730    0.6568276   -0.7335803 
H    -0.3367115    1.4797532   -1.2283857 
H     1.2695255    0.8426986   -0.8218169 
C    -0.1920729    0.6568278    0.7335801 
H     0.3367106    1.4797542    1.2283852 
H    -1.2695256    0.8426976    0.8218162 
O     0.1220575   -0.6042805    1.2969479 
H    -0.0912836   -0.5576653    2.2360705 
