10
Energy =
H     0.1129214   -0.6377344   -2.1867171 
O    -0.1295555   -0.6116357   -1.2561601 
C     0.1986221    0.6714158   -0.7311723 
H    -0.3433176    1.4690981   -1.2526375 
H     1.2724682    0.8762067   -0.8138262 
C    -0.1986236    0.6714205    0.7311645 
H     0.3432960    1.4691087    1.2526255 
H    -1.2724812    0.8762006    0.8138010 
O     0.1295936   -0.6116099    1.2561772 
H    -0.1134737   -0.6379103    2.1865761 
