10
Energy =
H     0.0841473   -0.6535387   -2.1683045 
O    -0.1043866   -0.6267400   -1.2253573 
C     0.1546251    0.6880017   -0.7417242 
H    -0.4767512    1.4314676   -1.2422682 
H     1.2028318    0.9717662   -0.8922463 
C    -0.1546252    0.6880063    0.7417169 
H     0.4767331    1.4314774    1.2422588 
H    -1.2028444    0.9717642    0.8922219 
O     0.1044248   -0.6267191    1.2253719 
H    -0.0847219   -0.6536712    2.1681935 
