10
Energy = -229.0193861129
H     0.0468225   -0.5617940   -2.2312100 
O    -0.0962374   -0.6183712   -1.2792652 
C     0.1496470    0.6712443   -0.7472971 
H    -0.4645355    1.4432542   -1.2242131 
H     1.2027483    0.9352008   -0.9028789 
C    -0.1496470    0.6712443    0.7472970 
H     0.4645354    1.4432543    1.2242130 
H    -1.2027483    0.9352007    0.9028788 
O     0.0962376   -0.6183711    1.2792653 
H    -0.0468247   -0.5617945    2.2312097 
